data_crystal

_audit_creation_method 'AiiDA-DDEC plugin'

_cell_length_a        32.56235
_cell_length_b        32.60921
_cell_length_c         7.82425

_cell_angle_alpha     120.40981
_cell_angle_beta     109.52680
_cell_angle_gamma     89.08148

_symmetry_space_group_name_Hall 'P 1'
_symmetry_space_group_name_H-M  'P 1'

loop_
_symmetry_equiv_pos_as_xyz
 'x,y,z'

loop_
_atom_site_label
_atom_site_type_symbol
_atom_site_fract_x
_atom_site_fract_y
_atom_site_fract_z
_atom_site_charge
Zn         Zn      0.50551   0.48118   0.25082   0.72247
Zn         Zn      0.49619   0.51892   0.74956   0.72225
B          B       0.23375   0.47498   0.16238   0.57675
B          B       0.77470   0.48449   0.30437   0.58218
B          B       0.50402   0.21296   0.22299   0.58065
B          B       0.50659   0.74926   0.27577   0.57183
B          B       0.22674   0.51528   0.69292   0.58239
B          B       0.76773   0.52479   0.83516   0.57634
B          B       0.49385   0.25037   0.72035   0.57004
B          B       0.49724   0.78674   0.77394   0.57939
H          H       0.67300   0.40475   0.28252   0.15100
H          H       0.90046   0.55126   0.29538   0.12150
H          H       0.82684   0.55314   0.32532   0.10788
H          H       0.33697   0.55573   0.19856   0.15013
H          H       0.10459   0.40683   0.14482   0.11788
H          H       0.18016   0.40599   0.13539   0.11212
H          H       0.58676   0.65073   0.29833   0.15167
H          H       0.43834   0.87653   0.26126   0.11779
H          H       0.43874   0.79963   0.25490   0.10878
H          H       0.42367   0.31143   0.19849   0.14967
H          H       0.57190   0.08675   0.25576   0.11724
H          H       0.57231   0.16286   0.25493   0.10949
H          H       0.33416   0.39547   0.16420   0.15123
H          H       0.10775   0.54665   0.21379   0.12129
H          H       0.18295   0.54548   0.20110   0.11257
H          H       0.67474   0.56478   0.31501   0.15039
H          H       0.90004   0.41250   0.23704   0.11841
H          H       0.82600   0.41422   0.26422   0.10937
H          H       0.42574   0.64528   0.23565   0.15050
H          H       0.57370   0.88078   0.30307   0.11844
H          H       0.57428   0.80421   0.29997   0.11223
H          H       0.58468   0.31677   0.26201   0.15056
H          H       0.43453   0.08075   0.18155   0.11949
H          H       0.43494   0.15669   0.18015   0.10984
H          H       0.66457   0.44400   0.79924   0.15089
H          H       0.89676   0.59284   0.85128   0.11762
H          H       0.82127   0.59375   0.86156   0.11327
H          H       0.32836   0.59506   0.71469   0.15022
H          H       0.10083   0.44843   0.70062   0.12195
H          H       0.17453   0.44655   0.67131   0.10946
H          H       0.57796   0.68868   0.80108   0.14938
H          H       0.42755   0.91144   0.73497   0.11743
H          H       0.42820   0.83557   0.73784   0.10925
H          H       0.41442   0.34966   0.70068   0.15226
H          H       0.56104   0.12223   0.73123   0.11772
H          H       0.56126   0.19926   0.73877   0.10903
H          H       0.32695   0.43537   0.68529   0.15112
H          H       0.10134   0.58717   0.75877   0.11702
H          H       0.17542   0.58543   0.73200   0.10944
H          H       0.66742   0.60445   0.83524   0.15100
H          H       0.89356   0.45294   0.78151   0.12050
H          H       0.81844   0.45419   0.79508   0.11226
H          H       0.41680   0.68284   0.73497   0.15095
H          H       0.56524   0.91970   0.81476   0.11977
H          H       0.56586   0.84395   0.81784   0.11277
H          H       0.57534   0.35405   0.76168   0.15062
H          H       0.42593   0.11935   0.69333   0.12026
H          H       0.42597   0.19606   0.69768   0.11194
C          C       0.02188   0.47831   0.20133  -0.03168
C          C       0.05864   0.47764   0.18946  -0.07230
C          C       0.10117   0.47688   0.18056   0.12947
C          C       0.18709   0.47568   0.16789  -0.23680
C          C       0.98207   0.47917   0.21874  -0.03515
C          C       0.94624   0.48010   0.23996  -0.07163
C          C       0.90507   0.48161   0.26322   0.12712
C          C       0.82098   0.48368   0.29525  -0.22706
C          C       0.50415   0.00257   0.25580  -0.03479
C          C       0.50360   0.03718   0.23227  -0.08097
C          C       0.50335   0.07903   0.22174   0.13758
C          C       0.50377   0.16555   0.21943  -0.23513
C          C       0.50488   0.96315   0.26995  -0.02996
C          C       0.50555   0.92709   0.28312  -0.07319
C          C       0.50599   0.88393   0.28323   0.12739
C          C       0.50658   0.79656   0.27851  -0.22867
C          C       0.12203   0.43695   0.15718  -0.13331
C          C       0.16425   0.43669   0.15155  -0.05662
C          C       0.29838   0.45233   0.16177   0.17164
C          C       0.33446   0.42926   0.16827  -0.18815
C          C       0.37220   0.45383   0.18687  -0.04214
C          C       0.41654   0.44273   0.20722   0.33190
C          C       0.88408   0.52166   0.29035  -0.13069
C          C       0.84289   0.52242   0.30681  -0.05520
C          C       0.71045   0.50748   0.31150   0.17232
C          C       0.67457   0.53095   0.31060  -0.18538
C          C       0.63754   0.50694   0.29877  -0.03937
C          C       0.59383   0.51915   0.28891   0.34116
C          C       0.54219   0.10247   0.24007  -0.13320
C          C       0.54222   0.14502   0.23999  -0.04503
C          C       0.52649   0.27910   0.23855   0.17473
C          C       0.55042   0.31568   0.24935  -0.18864
C          C       0.52685   0.35157   0.24315  -0.04202
C          C       0.54028   0.39549   0.25368   0.33404
C          C       0.46785   0.86036   0.26903  -0.13142
C          C       0.46830   0.81738   0.26562  -0.03896
C          C       0.48416   0.68341   0.26275   0.17435
C          C       0.46013   0.64665   0.25045  -0.17771
C          C       0.48370   0.61080   0.25635  -0.04477
C          C       0.47045   0.56712   0.24800   0.33266
C          C       0.88369   0.44302   0.25573  -0.13461
C          C       0.84236   0.44427   0.27178  -0.05192
C          C       0.70978   0.46282   0.29927   0.16203
C          C       0.67351   0.43899   0.29052  -0.18641
C          C       0.63702   0.46242   0.29036  -0.04114
C          C       0.59317   0.44878   0.27807   0.33502
C          C       0.12395   0.51620   0.19788  -0.13699
C          C       0.16597   0.51524   0.19006  -0.04320
C          C       0.29917   0.49690   0.17291   0.17262
C          C       0.33598   0.52128   0.18863  -0.18510
C          C       0.37287   0.49849   0.19641  -0.03562
C          C       0.41742   0.51332   0.22002   0.34037
C          C       0.46441   0.09882   0.19635  -0.13031
C          C       0.46495   0.14139   0.19644  -0.05016
C          C       0.48181   0.27752   0.22047   0.16500
C          C       0.45798   0.31243   0.21195  -0.18235
C          C       0.48191   0.34998   0.22493  -0.03675
C          C       0.46905   0.39291   0.22415   0.32836
C          C       0.54452   0.86296   0.29478  -0.13795
C          C       0.54458   0.82014   0.29239  -0.06013
C          C       0.52878   0.68500   0.28042   0.17935
C          C       0.55257   0.64984   0.28680  -0.18429
C          C       0.52863   0.61229   0.27365  -0.04996
C          C       0.54164   0.56945   0.27579   0.32642
C          C       0.01926   0.52051   0.77699  -0.03350
C          C       0.05510   0.51960   0.75583  -0.07332
C          C       0.09628   0.51807   0.73270   0.12924
C          C       0.18041   0.51601   0.70134  -0.22784
C          C       0.97945   0.52135   0.79441  -0.03223
C          C       0.94269   0.52201   0.80628  -0.07262
C          C       0.90018   0.52277   0.81533   0.13070
C          C       0.81434   0.52404   0.82890  -0.23708
C          C       0.49409   0.03609   0.72279  -0.03335
C          C       0.49358   0.07223   0.71028  -0.06734
C          C       0.49347   0.11549   0.71100   0.12380
C          C       0.49357   0.20302   0.71714  -0.22890
C          C       0.49480   0.99663   0.73668  -0.03646
C          C       0.49548   0.96205   0.76040  -0.07641
C          C       0.49621   0.92028   0.77169   0.13632
C          C       0.49698   0.83401   0.77623  -0.23399
C          C       0.11725   0.47803   0.70576  -0.13208
C          C       0.15847   0.47727   0.68967  -0.05568
C          C       0.29109   0.49246   0.68706   0.17313
C          C       0.32704   0.46912   0.68894  -0.18610
C          C       0.36406   0.49316   0.70078  -0.03980
C          C       0.40779   0.48102   0.71120   0.34112
C          C       0.87934   0.56273   0.83904  -0.13617
C          C       0.83715   0.56303   0.84512  -0.05682
C          C       0.70318   0.54754   0.83702   0.17298
C          C       0.66713   0.57065   0.83107  -0.18892
C          C       0.62942   0.54608   0.81270  -0.04139
C          C       0.58512   0.55726   0.79280   0.32990
C          C       0.53172   0.13872   0.72453  -0.12844
C          C       0.53161   0.18179   0.72865  -0.04207
C          C       0.51671   0.31625   0.73453   0.17435
C          C       0.54098   0.35296   0.74746  -0.17754
C          C       0.51770   0.38908   0.74272  -0.04534
C          C       0.53111   0.43283   0.75165   0.33246
C          C       0.45757   0.89628   0.75238  -0.13363
C          C       0.45814   0.85385   0.75357  -0.04449
C          C       0.47498   0.72062   0.75892   0.17574
C          C       0.45110   0.68404   0.74824  -0.19035
C          C       0.47476   0.64829   0.75535  -0.04117
C          C       0.46135   0.60444   0.74523   0.33491
C          C       0.87740   0.48343   0.79790  -0.13442
C          C       0.83541   0.48443   0.80619  -0.04299
C          C       0.70238   0.50290   0.82535   0.17189
C          C       0.66557   0.47851   0.80973  -0.18556
C          C       0.62872   0.50138   0.80275  -0.03511
C          C       0.58418   0.48659   0.77955   0.33973
C          C       0.11768   0.55667   0.74028  -0.13423
C          C       0.15903   0.55541   0.72450  -0.05195
C          C       0.29169   0.53704   0.69853   0.16332
C          C       0.32795   0.56089   0.70732  -0.18795
C          C       0.36452   0.53760   0.70843  -0.04068
C          C       0.40841   0.55125   0.72103   0.33627
C          C       0.45518   0.13689   0.70097  -0.13810
C          C       0.45546   0.17979   0.70404  -0.05976
C          C       0.47212   0.31492   0.71734   0.17989
C          C       0.44860   0.35032   0.71202  -0.18569
C          C       0.47279   0.38780   0.72582  -0.04886
C          C       0.45995   0.43072   0.72439   0.32528
C          C       0.53553   0.90117   0.79908  -0.13261
C          C       0.53556   0.85872   0.80002  -0.05172
C          C       0.51970   0.72237   0.77779   0.16416
C          C       0.54362   0.68756   0.78705  -0.18169
C          C       0.51974   0.64998   0.77417  -0.03692
C          C       0.53263   0.60710   0.77555   0.32882
N          N       0.44254   0.47952   0.22966  -0.44666
N          N       0.56855   0.48348   0.27598  -0.42989
N          N       0.50492   0.41918   0.24376  -0.44587
N          N       0.50597   0.54365   0.26004  -0.43710
N          N       0.42853   0.40332   0.20589  -0.38622
N          N       0.58184   0.55845   0.28910  -0.39161
N          N       0.58055   0.40887   0.26953  -0.38895
N          N       0.43007   0.55343   0.22985  -0.37880
N          N       0.43308   0.51664   0.72395  -0.43061
N          N       0.55911   0.52048   0.77046  -0.44569
N          N       0.49567   0.45646   0.74029  -0.43704
N          N       0.49675   0.58083   0.75586  -0.44672
N          N       0.41977   0.44174   0.71121  -0.38958
N          N       0.57315   0.59668   0.79410  -0.38607
N          N       0.57148   0.44646   0.76950  -0.37801
N          N       0.42104   0.59108   0.72907  -0.39047
O          O       0.25747   0.43789   0.15143  -0.33859
O          O       0.75085   0.52164   0.31711  -0.33584
O          O       0.54074   0.23932   0.24182  -0.33415
O          O       0.47001   0.72345   0.26148  -0.33601
O          O       0.74965   0.44795   0.29371  -0.33907
O          O       0.25887   0.51120   0.17165  -0.33532
O          O       0.46750   0.23654   0.21170  -0.34129
O          O       0.54320   0.72608   0.29061  -0.33534
O          O       0.25067   0.47824   0.68107  -0.33553
O          O       0.74406   0.56196   0.84698  -0.33916
O          O       0.53054   0.27598   0.73457  -0.33559
O          O       0.46058   0.76025   0.75489  -0.33349
O          O       0.74262   0.48855   0.82585  -0.33513
O          O       0.25176   0.55181   0.70341  -0.33943
O          O       0.45742   0.27382   0.70634  -0.33424
O          O       0.53390   0.76338   0.78632  -0.34191

