data_crystal

_audit_creation_method 'AiiDA-DDEC plugin'

_cell_length_a        14.20166
_cell_length_b        13.29934
_cell_length_c         8.46871

_cell_angle_alpha     88.45330
_cell_angle_beta     88.90654
_cell_angle_gamma     89.97893

_symmetry_space_group_name_Hall 'P 1'
_symmetry_space_group_name_H-M  'P 1'

loop_
_symmetry_equiv_pos_as_xyz
 'x,y,z'

loop_
_atom_site_label
_atom_site_type_symbol
_atom_site_fract_x
_atom_site_fract_y
_atom_site_fract_z
_atom_site_charge
Si         Si      0.99467   0.99606   0.00704   0.70069
Si         Si      0.50529   0.50626   0.00728   0.70041
H          H       0.90621   0.02806   0.69389   0.11026
H          H       0.81706   0.92007   0.51954   0.12856
H          H       0.84819   0.67015   0.84871   0.12617
H          H       0.94215   0.77842   0.02467   0.10738
H          H       0.11729   0.98981   0.71774   0.11496
H          H       0.21490   0.11947   0.57121   0.11022
H          H       0.11083   0.34813   0.87735   0.11893
H          H       0.01416   0.21976   0.02954   0.11081
H          H       0.01488   0.10890   0.30123   0.10508
H          H       0.90445   0.19691   0.47651   0.13304
H          H       0.67320   0.11685   0.18339   0.12850
H          H       0.78416   0.02355   0.00677   0.10747
H          H       0.98384   0.89640   0.32676   0.10918
H          H       0.10040   0.81530   0.49952   0.13032
H          H       0.31249   0.84764   0.13146   0.12340
H          H       0.19731   0.93582   0.95871   0.10252
H          H       0.39830   0.47891   0.71862   0.10535
H          H       0.30976   0.58998   0.54022   0.13425
H          H       0.38037   0.84487   0.81841   0.12845
H          H       0.47251   0.73220   0.00024   0.10746
H          H       0.59364   0.52646   0.68659   0.10701
H          H       0.67697   0.41124   0.51088   0.12986
H          H       0.66147   0.17709   0.87197   0.12332
H          H       0.57226   0.29134   0.04825   0.10150
H          H       0.51529   0.36191   0.28473   0.11409
H          H       0.39891   0.24084   0.40480   0.11878
H          H       0.18022   0.36853   0.12063   0.11361
H          H       0.29636   0.48701   0.98952   0.10673
H          H       0.48066   0.60501   0.31970   0.11375
H          H       0.58892   0.69241   0.49330   0.12946
H          H       0.81733   0.64807   0.16071   0.12489
H          H       0.70899   0.55591   0.98558   0.10669
C          C       0.93252   0.91091   0.87112  -0.21809
C          C       0.89603   0.94935   0.72827  -0.05339
C          C       0.84487   0.88896   0.62890  -0.13951
C          C       0.82954   0.78831   0.67466   0.10542
C          C       0.86362   0.74817   0.81692  -0.14450
C          C       0.91548   0.80948   0.91387  -0.05428
C          C       0.05987   0.09537   0.88626  -0.17911
C          C       0.11584   0.06750   0.75538  -0.06849
C          C       0.17091   0.13865   0.67270  -0.09921
C          C       0.16904   0.23908   0.71994   0.10571
C          C       0.11140   0.26924   0.84684  -0.11823
C          C       0.05792   0.19741   0.92961  -0.06239
C          C       0.90750   0.05806   0.14157  -0.21235
C          C       0.94009   0.10793   0.27490  -0.05613
C          C       0.87839   0.15870   0.37444  -0.14010
C          C       0.78248   0.15994   0.33956   0.10601
C          C       0.74800   0.11240   0.20739  -0.14711
C          C       0.81075   0.06107   0.10959  -0.05090
C          C       0.08209   0.92553   0.13104  -0.21339
C          C       0.05601   0.88858   0.28323  -0.05491
C          C       0.12123   0.84187   0.38169  -0.13933
C          C       0.21377   0.83031   0.32543   0.10428
C          C       0.24083   0.86164   0.17234  -0.13736
C          C       0.17513   0.91001   0.07673  -0.05555
C          C       0.44343   0.59735   0.87222  -0.21147
C          C       0.39651   0.55905   0.74144  -0.05622
C          C       0.34601   0.62133   0.63927  -0.13963
C          C       0.34234   0.72426   0.66877   0.10585
C          C       0.38680   0.76475   0.79847  -0.14694
C          C       0.43757   0.70100   0.89918  -0.05281
C          C       0.57369   0.41738   0.87958  -0.21345
C          C       0.60586   0.44957   0.72812  -0.05364
C          C       0.65383   0.38504   0.62770  -0.14146
C          C       0.67116   0.28646   0.68133   0.10252
C          C       0.64361   0.25317   0.83341  -0.14153
C          C       0.59441   0.31841   0.93091  -0.05533
C          C       0.41474   0.43150   0.12440  -0.19394
C          C       0.44272   0.36332   0.24534  -0.07079
C          C       0.37837   0.29542   0.31381  -0.11636
C          C       0.28439   0.29753   0.26568   0.10967
C          C       0.25402   0.36840   0.15220  -0.12135
C          C       0.31919   0.43401   0.08115  -0.06438
C          C       0.58713   0.57202   0.14080  -0.21454
C          C       0.55452   0.61200   0.28422  -0.05485
C          C       0.61510   0.66212   0.38315  -0.14074
C          C       0.70983   0.67280   0.33671   0.10347
C          C       0.74381   0.63589   0.19336  -0.14269
C          C       0.68249   0.58516   0.09684  -0.05421
N          N       0.77089   0.72251   0.58598   0.26527
N          N       0.23067   0.30548   0.63271   0.05592
N          N       0.71611   0.21809   0.43045   0.26280
N          N       0.28415   0.77804   0.41665   0.26692
N          N       0.28498   0.79148   0.57486   0.26293
N          N       0.72497   0.21611   0.58969   0.26745
N          N       0.22428   0.22062   0.33321   0.02152
N          N       0.77655   0.72899   0.42591   0.26577
O          O       0.71807   0.65831   0.65921  -0.40874
O          O       0.23007   0.39438   0.67304  -0.21634
O          O       0.65107   0.26733   0.36047  -0.41111
O          O       0.34494   0.72292   0.34737  -0.40825
O          O       0.23817   0.86144   0.64082  -0.41166
O          O       0.77772   0.15184   0.65951  -0.41101
O          O       0.13961   0.22883   0.29924  -0.23798
O          O       0.84107   0.77981   0.35335  -0.40887

