data_crystal

_audit_creation_method 'AiiDA-DDEC plugin'

_cell_length_a        13.27347
_cell_length_b        13.34054
_cell_length_c         7.91527

_cell_angle_alpha     90.19603
_cell_angle_beta     90.07291
_cell_angle_gamma     89.96693

_symmetry_space_group_name_Hall 'P 1'
_symmetry_space_group_name_H-M  'P 1'

loop_
_symmetry_equiv_pos_as_xyz
 'x,y,z'

loop_
_atom_site_label
_atom_site_type_symbol
_atom_site_fract_x
_atom_site_fract_y
_atom_site_fract_z
_atom_site_charge
H          H       0.10109   0.03677   0.71071   0.12207
H          H       0.19364   0.92300   0.52493   0.12962
H          H       0.11120   0.67409   0.84067   0.12619
H          H       0.01516   0.78910   0.02803   0.11924
H          H       0.89683   0.96433   0.70163   0.12055
H          H       0.80393   0.08010   0.51973   0.12782
H          H       0.86750   0.32184   0.86503   0.12483
H          H       0.96530   0.20602   0.04659   0.11756
H          H       0.03479   0.89496   0.28879   0.12271
H          H       0.92080   0.80371   0.47509   0.12876
H          H       0.67030   0.88296   0.15633   0.12603
H          H       0.78573   0.97732   0.96769   0.11594
H          H       0.96040   0.10054   0.29377   0.12041
H          H       0.07580   0.19306   0.47708   0.13018
H          H       0.32222   0.11938   0.14589   0.12546
H          H       0.20590   0.02316   0.96136   0.11982
H          H       0.59365   0.46482   0.69634   0.12066
H          H       0.68838   0.58029   0.51684   0.12835
H          H       0.63718   0.81838   0.87481   0.12392
H          H       0.53710   0.70333   0.05336   0.11766
H          H       0.39750   0.53425   0.70210   0.11931
H          H       0.30340   0.41869   0.52106   0.13089
H          H       0.36958   0.17677   0.86223   0.12500
H          H       0.46846   0.29244   0.04295   0.11882
H          H       0.53289   0.59428   0.30218   0.11767
H          H       0.41764   0.68998   0.48143   0.13008
H          H       0.17787   0.63900   0.12471   0.12411
H          H       0.29287   0.53811   0.94609   0.11672
H          H       0.46085   0.39705   0.29194   0.12138
H          H       0.57570   0.30441   0.47549   0.13041
H          H       0.82308   0.37650   0.14644   0.12542
H          H       0.70700   0.47224   0.96063   0.11656
C          C       0.05030   0.92218   0.88417   0.07473
C          C       0.10145   0.95736   0.74041  -0.12294
C          C       0.15457   0.89320   0.63411  -0.13462
C          C       0.15684   0.79083   0.67206   0.09175
C          C       0.10715   0.75380   0.81396  -0.13767
C          C       0.05379   0.81930   0.91863  -0.11983
C          C       0.94027   0.07607   0.88721   0.07143
C          C       0.89313   0.04283   0.73774  -0.12108
C          C       0.83961   0.10794   0.63415  -0.13779
C          C       0.83205   0.20873   0.68156   0.09300
C          C       0.87637   0.24350   0.83036  -0.13525
C          C       0.93085   0.17738   0.93169  -0.11970
C          C       0.91932   0.94439   0.11426   0.07344
C          C       0.95497   0.89431   0.25872  -0.12429
C          C       0.89072   0.84189   0.36518  -0.13618
C          C       0.78779   0.83926   0.32670   0.09321
C          C       0.75040   0.88750   0.18352  -0.13970
C          C       0.81603   0.94000   0.07844  -0.11839
C          C       0.07376   0.05351   0.11331   0.07244
C          C       0.03971   0.10249   0.26041  -0.11984
C          C       0.10480   0.15560   0.36533  -0.13530
C          C       0.20692   0.16021   0.32243   0.09298
C          C       0.24277   0.11319   0.17677  -0.13675
C          C       0.17640   0.05968   0.07367  -0.11941
C          C       0.55521   0.57534   0.88689   0.07006
C          C       0.59992   0.54269   0.73519  -0.12180
C          C       0.65448   0.60759   0.63303  -0.13777
C          C       0.66582   0.70728   0.68459   0.09330
C          C       0.62466   0.74116   0.83635  -0.13408
C          C       0.56889   0.67545   0.93592  -0.12140
C          C       0.44213   0.42259   0.88613   0.07211
C          C       0.39398   0.45577   0.73778  -0.11893
C          C       0.33994   0.39066   0.63427  -0.13641
C          C       0.33291   0.28983   0.68056   0.09333
C          C       0.37817   0.25509   0.82818  -0.13520
C          C       0.43317   0.32121   0.92921  -0.12014
C          C       0.42181   0.55616   0.11158   0.06945
C          C       0.45469   0.60089   0.26329  -0.11791
C          C       0.38982   0.65596   0.36564  -0.13602
C          C       0.28967   0.66761   0.31447   0.09309
C          C       0.25543   0.62626   0.16293  -0.13408
C          C       0.32121   0.57009   0.06315  -0.12034
C          C       0.57495   0.44367   0.11309   0.07102
C          C       0.54029   0.39485   0.25933  -0.12054
C          C       0.60503   0.34172   0.36430  -0.13669
C          C       0.70731   0.33694   0.32224   0.09265
C          C       0.74357   0.38318   0.17673  -0.13795
C          C       0.67753   0.43656   0.07335  -0.11853
C          C       0.99594  -0.00111  -0.00044   0.00695
C          C       0.49850   0.49922  -0.00081   0.00757
N          N       0.21660   0.72028   0.57673   0.26728
N          N       0.77129   0.27900   0.58808   0.26600
N          N       0.71707   0.78055   0.42267   0.26646
N          N       0.27800   0.21986   0.41698   0.26675
N          N       0.72769   0.77711   0.59265   0.26558
N          N       0.27197   0.21922   0.58750   0.26556
N          N       0.21964   0.72964   0.40667   0.26576
N          N       0.77826   0.27793   0.41753   0.26585
O          O       0.26238   0.64906   0.65239  -0.41488
O          O       0.71562   0.34178   0.66675  -0.41016
O          O       0.64451   0.73570   0.34784  -0.41563
O          O       0.34666   0.26880   0.34004  -0.41437
O          O       0.78711   0.83559   0.67310  -0.40905
O          O       0.21760   0.15593   0.66675  -0.41113
O          O       0.16017   0.78795   0.32647  -0.40971
O          O       0.84780   0.22936   0.34127  -0.41443

