data_crystal

_audit_creation_method 'AiiDA-DDEC plugin'

_cell_length_a        21.70375
_cell_length_b        21.69030
_cell_length_c        25.34012

_cell_angle_alpha     87.75472
_cell_angle_beta     92.17974
_cell_angle_gamma     89.11968

_symmetry_space_group_name_Hall 'P 1'
_symmetry_space_group_name_H-M  'P 1'

loop_
_symmetry_equiv_pos_as_xyz
 'x,y,z'

loop_
_atom_site_label
_atom_site_type_symbol
_atom_site_fract_x
_atom_site_fract_y
_atom_site_fract_z
_atom_site_charge
H          H       0.41801   0.30595   0.28662   0.11741
H          H       0.52586   0.69762   0.23038   0.11454
H          H       0.68237   0.39431   0.73317   0.11643
H          H       0.29256   0.50983   0.78553   0.11751
H          H       0.50859   0.62117   0.48660   0.11775
H          H       0.40588   0.23050   0.54454   0.11447
H          H       0.23938   0.52987   0.04374   0.11893
H          H       0.62912   0.42184   0.98728   0.11679
H          H       0.41105   0.21495   0.34958   0.11974
H          H       0.53258   0.78998   0.28607   0.11028
H          H       0.78009   0.38965   0.78866   0.11082
H          H       0.20689   0.51868   0.84808   0.12023
H          H       0.51916   0.71138   0.42340   0.11947
H          H       0.40404   0.13750   0.48926   0.11268
H          H       0.14163   0.52978   0.98834   0.11302
H          H       0.71459   0.40850   0.92513   0.11940
H          H       0.53683   0.31773   0.18103   0.06734
H          H       0.40845   0.57218   0.24979   0.06556
H          H       0.55590   0.51381   0.74908   0.06414
H          H       0.29987   0.38584   0.68434   0.06792
H          H       0.39224   0.61524   0.59396   0.06801
H          H       0.51647   0.36210   0.52303   0.06530
H          H       0.37325   0.41945   0.02389   0.06338
H          H       0.62822   0.54346   0.09034   0.06825
H          H       0.37006   0.42790   0.16442   0.11706
H          H       0.57320   0.53288   0.16061   0.10434
H          H       0.51114   0.34615   0.66290   0.11557
H          H       0.40446   0.55184   0.66329   0.10644
H          H       0.55713   0.50267   0.61122   0.11660
H          H       0.35324   0.39903   0.61310   0.10513
H          H       0.41443   0.58470   0.11176   0.11461
H          H       0.52248   0.37959   0.11149   0.10593
H          H       0.40549   0.38600   0.11485   0.10401
H          H       0.53166   0.57795   0.11101   0.10808
H          H       0.55138   0.38613   0.61309   0.10593
H          H       0.35853   0.51670   0.61387   0.10646
H          H       0.52156   0.54472   0.66064   0.10372
H          H       0.39434   0.35352   0.66268   0.10760
H          H       0.37507   0.54456   0.16207   0.10445
H          H       0.56867   0.41547   0.16032   0.10637
H          H       0.56177   0.12677   0.27454   0.11092
H          H       0.37813   0.72522   0.37324   0.11911
H          H       0.71912   0.54828   0.87083   0.11888
H          H       0.11864   0.36339   0.77839   0.11308
H          H       0.37601   0.80826   0.50113   0.11118
H          H       0.55247   0.21150   0.39964   0.11938
H          H       0.21339   0.37926   0.90184   0.11874
H          H       0.81240   0.55621   0.99778   0.11328
H          H       0.56819   0.21738   0.21207   0.10799
H          H       0.37250   0.63321   0.31822   0.11029
H          H       0.62190   0.55193   0.81601   0.11038
H          H       0.20382   0.35522   0.71618   0.10828
H          H       0.36578   0.71822   0.56371   0.10804
H          H       0.55342   0.30393   0.45428   0.11134
H          H       0.31047   0.38032   0.95655   0.11075
H          H       0.72713   0.56915   0.05935   0.10808
H          H       0.45967   0.40587   0.73374   0.11391
H          H       0.46234   0.48749   0.73307   0.10146
H          H       0.51743   0.47595   0.23219   0.11196
H          H       0.43590   0.47939   0.23341   0.10285
H          H       0.46562   0.52490   0.04080   0.11351
H          H       0.46374   0.44325   0.04180   0.10154
H          H       0.41005   0.45623   0.54217   0.11259
H          H       0.49160   0.45251   0.54149   0.10193
C          C       0.48348   0.11185   0.35453  -0.06369
C          C       0.46088   0.81765   0.36711  -0.06525
C          C       0.81335   0.46521   0.86706  -0.06614
C          C       0.10728   0.44557   0.85533  -0.06508
C          C       0.45448   0.81898   0.42052  -0.06390
C          C       0.47702   0.11358   0.40792  -0.06652
C          C       0.11335   0.45430   0.90842  -0.06615
C          C       0.81921   0.47397   0.92013  -0.06455
C          C       0.53013   0.16585   0.27717  -0.14256
C          C       0.41087   0.71897   0.34241  -0.12731
C          C       0.71094   0.51422   0.84114  -0.12761
C          C       0.15646   0.39575   0.77984  -0.14373
C          C       0.40514   0.76739   0.49791  -0.14181
C          C       0.51991   0.21591   0.43085  -0.12699
C          C       0.21921   0.41268   0.93239  -0.12574
C          C       0.77235   0.52672   0.99543  -0.14371
C          C       0.53379   0.21683   0.24227  -0.13121
C          C       0.40777   0.66749   0.31136  -0.13245
C          C       0.65652   0.51618   0.81023  -0.13236
C          C       0.20444   0.39109   0.74510  -0.13161
C          C       0.39937   0.71675   0.53291  -0.13259
C          C       0.52038   0.26759   0.46166  -0.13410
C          C       0.27353   0.41333   0.96325  -0.13458
C          C       0.72436   0.53399   0.02986  -0.13327
C          C       0.49387   0.26798   0.24574   0.05512
C          C       0.44932   0.65920   0.27087   0.05229
C          C       0.64564   0.47291   0.77118   0.05248
C          C       0.25411   0.43181   0.74711   0.05434
C          C       0.43637   0.66356   0.52891   0.05670
C          C       0.47920   0.27343   0.50279   0.05370
C          C       0.28141   0.45562   0.00356   0.05454
C          C       0.67222   0.49654   0.02696   0.05670
C          C       0.44935   0.26652   0.28477  -0.10796
C          C       0.49402   0.70435   0.26187  -0.10239
C          C       0.69114   0.42754   0.76354  -0.10338
C          C       0.25427   0.47806   0.78461  -0.10884
C          C       0.47970   0.66232   0.48895  -0.11020
C          C       0.43744   0.22570   0.51255  -0.10268
C          C       0.23300   0.49738   0.01243  -0.10555
C          C       0.66934   0.45113   0.98873  -0.11025
C          C       0.44565   0.21593   0.31966  -0.12748
C          C       0.49736   0.75567   0.29286  -0.14192
C          C       0.74544   0.42533   0.79441  -0.14120
C          C       0.20664   0.48279   0.81932  -0.12840
C          C       0.48538   0.71246   0.45395  -0.12593
C          C       0.43676   0.17406   0.48179  -0.14334
C          C       0.17869   0.49698   0.98158  -0.14294
C          C       0.71682   0.44393   0.95429  -0.12667
C          C       0.48659   0.16501   0.31694   0.08093
C          C       0.45639   0.76353   0.33418   0.08153
C          C       0.75603   0.46816   0.83421   0.08307
C          C       0.15726   0.44116   0.81799   0.08144
C          C       0.44769   0.76571   0.45746   0.07990
C          C       0.47750   0.16855   0.44002   0.08162
C          C       0.17106   0.45510   0.94062   0.08158
C          C       0.76892   0.48211   0.95666   0.08048
C          C       0.47496   0.47910   0.20714  -0.30008
C          C       0.46031   0.44760   0.70774  -0.30162
C          C       0.45231   0.45261   0.56750  -0.30312
C          C       0.46551   0.48329   0.06697  -0.30372
C          C       0.49951   0.32139   0.20897   0.05411
C          C       0.44533   0.60420   0.23915   0.06857
C          C       0.58773   0.47617   0.73944   0.06747
C          C       0.30438   0.42485   0.71055   0.05485
C          C       0.42940   0.61064   0.56600   0.05386
C          C       0.48123   0.32858   0.53440   0.06697
C          C       0.33947   0.45458   0.03505   0.06578
C          C       0.62234   0.50505   0.06365   0.05560
C          C       0.47074   0.93392   0.38968  -0.12654
C          C       0.47595   0.99638   0.38707  -0.12673
C          C       0.99436   0.45357   0.88729  -0.12718
C          C       0.93193   0.45783   0.88973  -0.12666
C          C       0.40950   0.48574   0.10249   0.27114
C          C       0.52622   0.47873   0.10084   0.27626
C          C       0.45136   0.39310   0.60272   0.27219
C          C       0.45726   0.50987   0.60170   0.27246
C          C       0.51665   0.44492   0.67260   0.26937
C          C       0.39994   0.45270   0.67336   0.27603
C          C       0.47526   0.53840   0.17156   0.27231
C          C       0.47004   0.42157   0.17327   0.26965
C          C       0.40977   0.42695   0.13886  -0.29344
C          C       0.53069   0.53504   0.13551  -0.31956
C          C       0.51096   0.38861   0.63779  -0.30292
C          C       0.40188   0.51211   0.63772  -0.31139
C          C       0.51720   0.50388   0.63652  -0.29381
C          C       0.39560   0.39656   0.63838  -0.31948
C          C       0.41519   0.54233   0.13702  -0.30317
C          C       0.52503   0.41953   0.13682  -0.30983
S          S       0.46090   0.89125   0.44935   0.08612
S          S       0.47343   0.04203   0.44302   0.08423
S          S       0.04469   0.45936   0.94310   0.08420
S          S       0.89425   0.46967   0.94902   0.08615
S          S       0.48751   0.03846   0.32743   0.08528
S          S       0.47502   0.88852   0.33370   0.08350
S          S       0.88171   0.45037   0.83409   0.08411
S          S       0.03180   0.44023   0.82818   0.08630
N          N       0.46334   0.36872   0.21006  -0.30271
N          N       0.48245   0.59449   0.20195  -0.30929
N          N       0.57549   0.43789   0.70324  -0.30630
N          N       0.35013   0.46171   0.70982  -0.30789
N          N       0.46471   0.56267   0.56506  -0.30281
N          N       0.44481   0.33686   0.57237  -0.30931
N          N       0.35003   0.49156   0.07260  -0.30667
N          N       0.57555   0.46953   0.06403  -0.30778

