data_crystal

_audit_creation_method 'AiiDA-DDEC plugin'

_cell_length_a        12.80784
_cell_length_b        12.85440
_cell_length_c        12.81308

_cell_angle_alpha     89.97553
_cell_angle_beta     89.99844
_cell_angle_gamma     89.99222

_symmetry_space_group_name_Hall 'P 1'
_symmetry_space_group_name_H-M  'P 1'

loop_
_symmetry_equiv_pos_as_xyz
 'x,y,z'

loop_
_atom_site_label
_atom_site_type_symbol
_atom_site_fract_x
_atom_site_fract_y
_atom_site_fract_z
_atom_site_charge
B          B       0.89296   0.91316   0.86906   0.80461
B          B       0.89280   0.14111   0.09456   0.80464
B          B       0.11576   0.91444   0.09599   0.80455
B          B       0.11546   0.14050   0.86761   0.80467
B          B       0.39024   0.41437   0.37058   0.80374
B          B       0.61883   0.41671   0.59535   0.80534
B          B       0.39020   0.63989   0.59295   0.80377
B          B       0.61871   0.63784   0.36822   0.80551
P          P       0.11443   0.13521   0.08940   1.30382
P          P       0.89446   0.92003   0.09059   1.30742
P          P       0.89426   0.13423   0.87300   1.30659
P          P       0.11464   0.91957   0.87402   1.30343
P          P       0.61240   0.41710   0.37390   1.30588
P          P       0.39693   0.63511   0.37141   1.30621
P          P       0.61238   0.63738   0.58959   1.30500
P          P       0.39714   0.41900   0.59195   1.30450
H          H       0.94626   0.78989   0.69686   0.10355
H          H       0.83291   0.68318   0.58208   0.11745
H          H       0.56485   0.76895   0.76720   0.11311
H          H       0.67911   0.87557   0.88147   0.11077
H          H       0.80677   0.33727   0.90820   0.11430
H          H       0.70016   0.45313   0.79552   0.10959
H          H       0.69724   0.21953   0.55522   0.10597
H          H       0.80415   0.10298   0.66712   0.11685
H          H       0.25727   0.24974   0.42523   0.10704
H          H       0.15056   0.13502   0.31173   0.11541
H          H       0.25558   0.30497   0.04085   0.11647
H          H       0.36246   0.41909   0.15529   0.10885
H          H       0.20541   0.59239   0.25983   0.11434
H          H       0.09017   0.70608   0.15365   0.10951
H          H       0.30182   0.96214   0.19832   0.10490
H          H       0.41770   0.84927   0.30456   0.11696
H          H       0.67813   0.17408   0.08567   0.11088
H          H       0.56393   0.28100   0.19987   0.11181
H          H       0.83368   0.37557   0.37804   0.11748
H          H       0.94694   0.26876   0.26325   0.10313
H          H       0.19005   0.44984   0.67347   0.11535
H          H       0.07501   0.33695   0.78053   0.10972
H          H       0.31636   0.10447   0.79457   0.10750
H          H       0.43220   0.21666   0.68726   0.11751
H          H       0.26650   0.81161   0.53977   0.10550
H          H       0.16028   0.92678   0.65329   0.11600
H          H       0.24719   0.74290   0.92143   0.11490
H          H       0.35346   0.62833   0.80704   0.10928
H          H       0.69301   0.60480   0.16495   0.10967
H          H       0.79954   0.72060   0.05215   0.11318
H          H       0.81106   0.94810   0.29942   0.11687
H          H       0.70432   0.83165   0.41143   0.10431
C          C       0.82079   0.21316   0.16642  -0.19708
C          C       0.69184   0.33570   0.29543  -0.23151
C          C       0.18768   0.84225   0.16787  -0.19629
C          C       0.31815   0.71416   0.28986  -0.22909
C          C       0.18731   0.21271   0.79572  -0.19786
C          C       0.31806   0.33974   0.67300  -0.23028
C          C       0.82094   0.84105   0.79724  -0.19863
C          C       0.69194   0.71866   0.66812  -0.23104
C          C       0.81298   0.21330   0.79403  -0.22988
C          C       0.69070   0.34475   0.66740  -0.19705
C          C       0.19575   0.21355   0.16922  -0.22956
C          C       0.31806   0.34247   0.29858  -0.19569
C          C       0.19617   0.84127   0.79432  -0.22972
C          C       0.31811   0.71176   0.66509  -0.19644
C          C       0.81295   0.84108   0.16939  -0.23003
C          C       0.69055   0.70983   0.29616  -0.19571
C          C       0.86278   0.78576   0.71235  -0.06276
C          C       0.79961   0.72504   0.64793  -0.07224
C          C       0.64842   0.77330   0.75250  -0.07188
C          C       0.71302   0.83362   0.81593  -0.06608
C          C       0.78326   0.31202   0.83062  -0.07075
C          C       0.72278   0.37655   0.76729  -0.06549
C          C       0.72101   0.24555   0.63252  -0.06394
C          C       0.78154   0.17980   0.69455  -0.07198
C          C       0.25729   0.26190   0.34114  -0.06272
C          C       0.19659   0.19763   0.27779  -0.07441
C          C       0.25599   0.29350   0.12499  -0.07173
C          C       0.31627   0.35681   0.18977  -0.06843
C          C       0.22596   0.67349   0.24669  -0.07186
C          C       0.16191   0.73758   0.18642  -0.06503
C          C       0.28045   0.88122   0.21155  -0.06276
C          C       0.34561   0.81851   0.27202  -0.07283
C          C       0.71240   0.21806   0.14968  -0.06580
C          C       0.64783   0.27846   0.21306  -0.07129
C          C       0.79997   0.33176   0.31371  -0.07086
C          C       0.86310   0.27094   0.24936  -0.06480
C          C       0.21733   0.37399   0.69966  -0.07004
C          C       0.15317   0.31050   0.76039  -0.06677
C          C       0.28843   0.18008   0.76825  -0.06258
C          C       0.35386   0.24232   0.70756  -0.07430
C          C       0.26259   0.79640   0.62328  -0.06153
C          C       0.20211   0.86097   0.68655  -0.07504
C          C       0.25124   0.75729   0.83783  -0.07010
C          C       0.31136   0.69371   0.77314  -0.06845
C          C       0.71869   0.67990   0.19452  -0.06527
C          C       0.77917   0.74434   0.13109  -0.07018
C          C       0.78545   0.87273   0.27065  -0.07142
C          C       0.72489   0.80710   0.33274  -0.06360
O          O       0.89094   0.03147   0.13630  -0.61734
O          O       0.89085   0.02287   0.82725  -0.61615
O          O       0.85034   0.14069   0.98555  -0.61995
O          O       0.85050   0.91374   0.97804  -0.61986
O          O       0.11785   0.02384   0.13599  -0.61864
O          O       0.15887   0.91354   0.98628  -0.61657
O          O       0.11800   0.03098   0.82753  -0.61920
O          O       0.15885   0.14108   0.97727  -0.61616
O          O       0.00257   0.87355   0.86810  -0.61925
O          O       0.00623   0.18057   0.86846  -0.61996
O          O       0.00235   0.18101   0.09541  -0.61847
O          O       0.00651   0.87388   0.09526  -0.62043
O          O       0.39055   0.53123   0.63564  -0.61926
O          O       0.65900   0.41420   0.48557  -0.61872
O          O       0.50909   0.37389   0.59585  -0.61666
O          O       0.50020   0.37264   0.36826  -0.61685
O          O       0.35058   0.41385   0.48001  -0.61864
O          O       0.39051   0.52293   0.32764  -0.62023
O          O       0.61796   0.52566   0.63574  -0.62038
O          O       0.50019   0.68180   0.59532  -0.61684
O          O       0.35057   0.64075   0.48344  -0.61880
O          O       0.50890   0.68030   0.36785  -0.61829
O          O       0.61803   0.52881   0.32779  -0.62064
O          O       0.65902   0.64028   0.47797  -0.61778

