data_crystal

_audit_creation_method 'AiiDA-DDEC plugin'

_cell_length_a        12.41757
_cell_length_b        13.00325
_cell_length_c        13.17156

_cell_angle_alpha     90.04970
_cell_angle_beta     89.96634
_cell_angle_gamma     89.95978

_symmetry_space_group_name_Hall 'P 1'
_symmetry_space_group_name_H-M  'P 1'

loop_
_symmetry_equiv_pos_as_xyz
 'x,y,z'

loop_
_atom_site_label
_atom_site_type_symbol
_atom_site_fract_x
_atom_site_fract_y
_atom_site_fract_z
_atom_site_charge
B          B       0.61727   0.60807   0.39011   0.85740
B          B       0.38051   0.38949   0.38974   0.85565
B          B       0.38069   0.61328   0.60692   0.85403
B          B       0.61218   0.38703   0.61068   0.85555
B          B       0.11866   0.89139   0.10905   0.85442
B          B       0.88126   0.10635   0.11255   0.85533
B          B       0.87941   0.88876   0.89087   0.85770
B          B       0.11379   0.11047   0.88806   0.85546
P          P       0.88880   0.88936   0.10453   1.32811
P          P       0.11129   0.10854   0.10224   1.32619
P          P       0.10910   0.89260   0.89484   1.32811
P          P       0.88369   0.10696   0.89868   1.32561
P          P       0.38868   0.60673   0.39223   1.33062
P          P       0.60930   0.39074   0.39479   1.32691
P          P       0.60965   0.60406   0.60593   1.32732
P          P       0.38369   0.39623   0.60488   1.33058
H          H       0.73319   0.72315   0.06276   0.15209
H          H       0.25717   0.28415   0.06252   0.15446
H          H       0.25958   0.72121   0.93328   0.15240
H          H       0.71250   0.26179   0.93923   0.15346
H          H       0.88405   0.86860   0.32335   0.15111
H          H       0.12515   0.11907   0.32082   0.14997
H          H       0.12210   0.88320   0.67575   0.15058
H          H       0.88645   0.13428   0.68210   0.15175
H          H       0.36510   0.82885   0.38553   0.15032
H          H       0.62069   0.16827   0.37791   0.15130
H          H       0.62232   0.82548   0.62331   0.15086
H          H       0.38272   0.17627   0.63047   0.15112
H          H       0.23570   0.56279   0.22775   0.14758
H          H       0.77861   0.43387   0.24425   0.15143
H          H       0.77173   0.55927   0.76417   0.15147
H          H       0.20747   0.43864   0.75102   0.15144
C          C       0.81354   0.80629   0.18475  -0.15744
C          C       0.18657   0.19128   0.18308  -0.15844
C          C       0.18599   0.81230   0.81312  -0.15575
C          C       0.80507   0.18784   0.81894  -0.15489
C          C       0.69243   0.67807   0.31775  -0.42471
C          C       0.30555   0.31902   0.31796  -0.42473
C          C       0.30624   0.68598   0.67744  -0.42640
C          C       0.68404   0.31463   0.68400  -0.42556
C          C       0.68579   0.67128   0.21149   0.33286
C          C       0.30702   0.33139   0.21228   0.33318
C          C       0.30932   0.67477   0.78328   0.33285
C          C       0.67044   0.31638   0.78998   0.33214
C          C       0.74286   0.73316   0.14411  -0.21360
C          C       0.25124   0.26994   0.14357  -0.21400
C          C       0.25275   0.73525   0.85228  -0.21438
C          C       0.72742   0.25518   0.85822  -0.21347
C          C       0.82774   0.81447   0.28989  -0.21621
C          C       0.17689   0.17767   0.28822  -0.21429
C          C       0.17543   0.82567   0.70807  -0.21724
C          C       0.82494   0.18388   0.71442  -0.21844
C          C       0.76795   0.75013   0.35244   0.33445
C          C       0.23578   0.24170   0.35191   0.33456
C          C       0.23456   0.76220   0.64385   0.33426
C          C       0.76508   0.24708   0.65088   0.33408
C          C       0.30935   0.68753   0.31361  -0.15687
C          C       0.69083   0.30945   0.31784  -0.15531
C          C       0.68962   0.68394   0.68535  -0.15527
C          C       0.30282   0.31599   0.68284  -0.15529
C          C       0.19057   0.82036   0.18326  -0.42438
C          C       0.81128   0.17667   0.18885  -0.42587
C          C       0.80703   0.81680   0.81750  -0.42558
C          C       0.18445   0.18170   0.81256  -0.42628
C          C       0.25683   0.85674   0.26170   0.33423
C          C       0.73708   0.14002   0.26054   0.33416
C          C       0.73445   0.85302   0.74404   0.33524
C          C       0.26372   0.14667   0.74467   0.33402
C          C       0.31647   0.79423   0.32618  -0.21561
C          C       0.67658   0.20278   0.32440  -0.21721
C          C       0.67612   0.79055   0.67840  -0.21692
C          C       0.32290   0.21007   0.68063  -0.21685
C          C       0.24331   0.64526   0.23838  -0.21473
C          C       0.76547   0.35150   0.24974  -0.21508
C          C       0.76009   0.64175   0.75705  -0.21415
C          C       0.22452   0.35677   0.74780  -0.21498
C          C       0.18604   0.71277   0.17688   0.33322
C          C       0.82353   0.28390   0.18863   0.33443
C          C       0.81612   0.70913   0.82002   0.33262
C          C       0.16829   0.28853   0.80955   0.33293
O          O       0.49337   0.61190   0.64787  -0.62767
O          O       0.49890   0.38890   0.64869  -0.62911
O          O       0.50476   0.61090   0.34992  -0.62663
O          O       0.49391   0.38545   0.35049  -0.62528
O          O       0.61600   0.64708   0.49655  -0.62698
O          O       0.38020   0.35193   0.49599  -0.62736
O          O       0.38383   0.65170   0.50096  -0.62430
O          O       0.61207   0.34771   0.50437  -0.62628
O          O       0.65855   0.49979   0.38758  -0.61461
O          O       0.33923   0.49780   0.38605  -0.61435
O          O       0.33594   0.50602   0.61002  -0.61314
O          O       0.65709   0.49418   0.61361  -0.61161
O          O       0.00508   0.88877   0.14693  -0.62455
O          O       0.99584   0.10770   0.14657  -0.62724
O          O       0.99282   0.88838   0.85251  -0.62462
O          O      -0.00103   0.11147   0.85373  -0.62743
O          O       0.15450   0.00323   0.88874  -0.62271
O          O       0.83815   0.99613   0.89345  -0.62379
O          O       0.84054  -0.00100   0.11065  -0.62159
O          O       0.15994  -0.00118   0.10697  -0.62073
O          O       0.87855   0.84501   0.99614  -0.61929
O          O       0.11984   0.15380   0.99398  -0.61625
O          O       0.12100   0.84853   0.00314  -0.61847
O          O       0.87447   0.15093   0.00743  -0.61691
F          F       0.62035   0.59847   0.16942  -0.13446
F          F       0.36615   0.41052   0.17317  -0.13472
F          F       0.37092   0.59780   0.82251  -0.13186
F          F       0.59782   0.38358   0.83088  -0.13381
F          F       0.78702   0.75913   0.45391  -0.14117
F          F       0.22204   0.22712   0.45352  -0.13994
F          F       0.21807   0.77671   0.54239  -0.14169
F          F       0.79100   0.24142   0.55040  -0.14130
F          F       0.26389   0.95987   0.27986  -0.14282
F          F       0.72202   0.03660   0.27125  -0.14185
F          F       0.71785   0.95603   0.73325  -0.14120
F          F       0.28684   0.04438   0.73790  -0.14009
F          F       0.12000   0.66944   0.10626  -0.13241
F          F       0.89785   0.32589   0.12460  -0.13342
F          F       0.88451   0.66543   0.88864  -0.13434
F          F       0.09194   0.33023   0.87148  -0.13366

