data_crystal

_audit_creation_method 'AiiDA-DDEC plugin'

_cell_length_a        37.15925
_cell_length_b        36.06864
_cell_length_c         8.08773

_cell_angle_alpha     89.45622
_cell_angle_beta     67.36587
_cell_angle_gamma     119.55997

_symmetry_space_group_name_Hall 'P 1'
_symmetry_space_group_name_H-M  'P 1'

loop_
_symmetry_equiv_pos_as_xyz
 'x,y,z'

loop_
_atom_site_label
_atom_site_type_symbol
_atom_site_fract_x
_atom_site_fract_y
_atom_site_fract_z
_atom_site_charge
H          H       0.94256   0.51911   0.38580   0.14250
H          H       0.46763   0.43020   0.45883   0.14599
H          H       0.57538   0.04398   0.28439   0.12824
H          H       0.05720   0.47501   0.12593   0.15534
H          H       0.53625   0.56985   0.00486   0.15490
H          H       0.42595   0.95597   0.22121   0.12190
H          H       0.89886   0.41386   0.23792   0.06911
H          H       0.59796   0.48409   0.09272   0.01849
H          H       0.52473   0.10699   0.21897   0.09111
H          H       0.09929   0.57780   0.28772   0.06942
H          H       0.41012   0.51814   0.36242   0.08702
H          H       0.47502   0.89216   0.29818   0.07791
H          H       0.83074   0.48555   0.31355   0.11840
H          H       0.51294   0.34371   0.34909   0.15461
H          H       0.64950   0.16370   0.31689   0.11834
H          H       0.17636   0.51426   0.15714   0.12405
H          H       0.49820   0.66006   0.14379   0.07306
H          H       0.35196   0.83592   0.19673   0.13769
H          H       0.82130   0.36538   0.45114   0.11698
H          H       0.62191   0.46879   0.31227   0.12820
H          H       0.52741   0.15597   0.34101   0.08665
H          H       0.17628   0.63194   0.07675   0.12205
H          H       0.38336   0.53209   0.15232   0.09602
H          H       0.47362   0.84391   0.15671   0.11487
H          H       0.74390   0.32136   0.45626   0.11100
H          H       0.66325   0.43490   0.33900   0.11665
H          H       0.56144   0.23377   0.36240   0.11731
H          H       0.25300   0.67658   0.07809   0.11014
H          H       0.33763   0.56549   0.13874   0.08430
H          H       0.44124   0.76646   0.13551   0.09699
H          H       0.75195   0.44093   0.32377   0.11691
H          H       0.55503   0.30886   0.35394   0.12139
H          H       0.68117   0.24144   0.34780   0.11027
H          H       0.25451   0.55963   0.15629   0.10409
H          H       0.44827   0.69155   0.14409   0.11157
H          H       0.31842   0.75771   0.17302   0.08414
H          H       0.93717   0.52274   0.90259   0.12863
H          H       0.46376   0.42830   0.96572   0.15604
H          H       0.57544   0.04339   0.78399   0.13136
H          H       0.05552   0.47946   0.63734   0.13609
H          H       0.53254   0.56808   0.51466   0.16772
H          H       0.42681   0.95513   0.72534   0.12860
H          H       0.89706   0.41830   0.73672   0.08022
H          H       0.59178   0.48249   0.61930   0.09100
H          H       0.52573   0.10726   0.71220   0.06162
H          H       0.09689   0.58346   0.79808   0.05248
H          H       0.40360   0.51452   0.87020   0.05828
H          H       0.47648   0.89165   0.79458   0.06655
H          H       0.82601   0.48652   0.81727   0.14101
H          H       0.50349   0.33914   0.86241   0.09341
H          H       0.64760   0.16276   0.82554   0.12838
H          H       0.17183   0.51730   0.65748   0.13331
H          H       0.48958   0.65561   0.64377   0.13437
H          H       0.35281   0.83761   0.68585   0.11255
H          H       0.81975   0.36833   0.95419   0.13620
H          H       0.62067   0.46876   0.79872   0.09681
H          H       0.52711   0.15549   0.84710   0.12606
H          H       0.17431   0.63594   0.58633   0.12552
H          H       0.37956   0.53066   0.65864   0.11663
H          H       0.47266   0.84173   0.67614   0.09330
H          H       0.74354   0.32280   0.94857   0.10182
H          H       0.66537   0.43610   0.82124   0.10320
H          H       0.55906   0.23213   0.86660   0.10755
H          H       0.25230   0.67925   0.57725   0.11280
H          H       0.33655   0.56481   0.63833   0.09536
H          H       0.43747   0.76379   0.65595   0.11298
H          H       0.74881   0.44068   0.81712   0.11739
H          H       0.55002   0.30634   0.87331   0.10797
H          H       0.68064   0.24188   0.85652   0.07635
H          H       0.25077   0.56057   0.64753   0.11464
H          H       0.44454   0.68911   0.64189   0.12796
H          H       0.32065   0.75952   0.65787   0.11983
C          C       0.96803   0.51017   0.33022  -0.15109
C          C       0.48044   0.45910   0.36466  -0.14880
C          C       0.54027   0.02201   0.27354  -0.14986
C          C       0.03506   0.48458   0.17867  -0.15835
C          C       0.52184   0.53923   0.09621  -0.14280
C          C       0.46099   0.97653   0.23743  -0.14882
C          C       0.95477   0.46938   0.27283   0.01444
C          C       0.53068   0.48230   0.20845  -0.00391
C          C       0.52144   0.04676   0.25154   0.04305
C          C       0.04571   0.52417   0.23637   0.02909
C          C       0.47461   0.51695   0.25629   0.02127
C          C       0.48018   0.95413   0.25646   0.03988
C          C       0.98561   0.45753   0.20217   0.06117
C          C       0.54757   0.51988   0.08973   0.08753
C          C       0.47723   0.01944   0.23500   0.06238
C          C       0.01418   0.53597   0.30904   0.06566
C          C       0.45485   0.47851   0.37088   0.07166
C          C       0.52383   0.98064   0.27183   0.07541
C          C       0.90671   0.44291   0.29174   0.06771
C          C       0.55432   0.45949   0.21694   0.14206
C          C       0.53785   0.09182   0.26016   0.02096
C          C       0.09358   0.55126   0.22202   0.06879
C          C       0.44460   0.53642   0.26022   0.05340
C          C       0.46183   0.90807   0.25270   0.05995
C          C       0.81138   0.44965   0.34441  -0.15616
C          C       0.54039   0.36088   0.32876  -0.21565
C          C       0.63082   0.17961   0.32680  -0.14502
C          C       0.19378   0.55014   0.14166  -0.15876
C          C       0.45462   0.63548   0.14605  -0.11553
C          C       0.36796   0.81891   0.18506  -0.17160
C          C       0.83333   0.42932   0.37157   0.21574
C          C       0.56008   0.40771   0.31851   0.23483
C          C       0.58715   0.15403   0.32162   0.20624
C          C       0.17072   0.57032   0.12838   0.22168
C          C       0.43908   0.59308   0.14978   0.18837
C          C       0.41464   0.84595   0.18627   0.20756
C          C       0.80720   0.38153   0.41778  -0.18663
C          C       0.61362   0.43860   0.31773  -0.20596
C          C       0.56410   0.17624   0.33799  -0.15003
C          C       0.19210   0.61578   0.10020  -0.18065
C          C       0.39737   0.56773   0.15485  -0.16309
C          C       0.44024   0.82392   0.16403  -0.18263
C          C       0.76363   0.35760   0.42093  -0.09092
C          C       0.63358   0.41738   0.33625  -0.05822
C          C       0.58021   0.21806   0.35320  -0.09744
C          C       0.23522   0.64047   0.09808  -0.07132
C          C       0.37565   0.58671   0.14379  -0.07046
C          C       0.42174   0.78324   0.15161  -0.07306
C          C       0.74312   0.37824   0.38510  -0.00424
C          C       0.61855   0.37266   0.34679  -0.04430
C          C       0.62319   0.24308   0.35272   0.00686
C          C       0.25792   0.62059   0.12209  -0.00502
C          C       0.39159   0.63104   0.14397  -0.00106
C          C       0.37683   0.75644   0.15475  -0.00725
C          C       0.76796   0.42563   0.34944  -0.09579
C          C       0.56487   0.34098   0.34442  -0.07006
C          C       0.64837   0.22198   0.34210  -0.10558
C          C       0.23563   0.57485   0.14008  -0.07680
C          C       0.43387   0.65561   0.13990  -0.09582
C          C       0.35395   0.77850   0.17362  -0.06030
C          C       0.69863   0.35311   0.37922   0.37527
C          C       0.63880   0.35074   0.35860   0.36908
C          C       0.64177   0.28868   0.36653   0.36983
C          C       0.30220   0.64584   0.12383   0.36846
C          C       0.36556   0.65162   0.13338   0.40154
C          C       0.35976   0.71178   0.14096   0.40093
C          C       0.96418   0.51248   0.84167  -0.14147
C          C       0.47593   0.45726   0.87656  -0.15840
C          C       0.54235   0.02335   0.77063  -0.14547
C          C       0.02886   0.48851   0.69703  -0.16613
C          C       0.51882   0.53808   0.60603  -0.13774
C          C       0.46142   0.97569   0.73629  -0.15552
C          C       0.95114   0.47421   0.78878   0.03533
C          C       0.52725   0.48062   0.71529   0.02964
C          C       0.52192   0.04663   0.75532   0.04517
C          C       0.04195   0.52818   0.74798   0.02229
C          C       0.46896   0.51486   0.76348   0.01410
C          C       0.47992   0.95275   0.75656   0.04553
C          C       0.98410   0.46214   0.71334   0.07312
C          C       0.54010   0.51742   0.60687   0.10853
C          C       0.47730   0.01784   0.73638   0.07568
C          C       0.00946   0.54076   0.82750   0.04864
C          C       0.45130   0.47724   0.87851   0.08026
C          C       0.52529   0.98047   0.77256   0.05640
C          C       0.90552   0.44712   0.79807   0.04635
C          C       0.55567   0.46288   0.71712   0.02950
C          C       0.53979   0.08896   0.75153   0.06085
C          C       0.09155   0.55533   0.72964   0.09452
C          C       0.44390   0.53551   0.76124   0.07771
C          C       0.46186   0.90709   0.75217   0.06922
C          C       0.80958   0.45202   0.84504  -0.16632
C          C       0.54163   0.36045   0.85130  -0.12788
C          C       0.62775   0.17803   0.83078  -0.16128
C          C       0.18839   0.55104   0.64173  -0.17615
C          C       0.45714   0.63591   0.64800  -0.16545
C          C       0.37236   0.82125   0.67953  -0.14380
C          C       0.82815   0.43018   0.87560   0.24322
C          C       0.55917   0.40697   0.82302   0.17941
C          C       0.58839   0.15505   0.82609   0.23516
C          C       0.16671   0.57364   0.63056   0.21973
C          C       0.43797   0.59106   0.65775   0.22671
C          C       0.41350   0.84396   0.69181   0.20602
C          C       0.80549   0.38335   0.91919  -0.19029
C          C       0.60759   0.43410   0.81314  -0.16526
C          C       0.55969   0.17354   0.84073  -0.19151
C          C       0.18910   0.61925   0.60461  -0.19523
C          C       0.38976   0.56341   0.65483  -0.19096
C          C       0.43679   0.82260   0.67340  -0.15754
C          C       0.76310   0.36019   0.91587  -0.05624
C          C       0.62887   0.41468   0.82576  -0.08414
C          C       0.57816   0.21724   0.85577  -0.09360
C          C       0.23466   0.64363   0.59721  -0.08397
C          C       0.37003   0.58356   0.64652  -0.03600
C          C       0.41858   0.77938   0.66352  -0.09488
C          C       0.74112   0.37829   0.87865  -0.01986
C          C       0.60929   0.36994   0.84034   0.01448
C          C       0.62168   0.24283   0.86056  -0.01250
C          C       0.25615   0.62253   0.61423  -0.00048
C          C       0.38202   0.62612   0.64074  -0.03601
C          C       0.37671   0.75608   0.65677   0.01090
C          C       0.76510   0.42593   0.84458  -0.07133
C          C       0.56484   0.34288   0.86449  -0.10591
C          C       0.64363   0.22043   0.84763  -0.05799
C          C       0.23402   0.57674   0.63457  -0.09245
C          C       0.43400   0.65679   0.64755  -0.09214
C          C       0.35240   0.77677   0.66675  -0.11184
C          C       0.69843   0.35339   0.87571   0.36062
C          C       0.63798   0.34819   0.86171   0.41582
C          C       0.64034   0.28765   0.87088   0.40397
C          C       0.30173   0.64737   0.62024   0.36977
C          C       0.36234   0.64842   0.63637   0.36858
C          C       0.35755   0.71106   0.64212   0.38334
Br         Br      0.97161   0.40308   0.12725  -0.07107
Br         Br      0.61505   0.55365   0.86958  -0.09612
Br         Br      0.44563   0.04631   0.21117  -0.04662
Br         Br      0.02866   0.59031   0.38785  -0.06920
Br         Br      0.38943   0.44558   0.58707  -0.09066
Br         Br      0.55566   0.95342   0.29616  -0.06545
Br         Br      0.96921   0.40814   0.63849  -0.05874
Br         Br      0.61468   0.55400   0.36989  -0.20672
Br         Br      0.44529   0.04557   0.71509  -0.06244
Br         Br      0.02378   0.59432   0.89963  -0.03984
Br         Br      0.38655   0.44480   0.09487  -0.08773
Br         Br      0.55753   0.95370   0.79243  -0.05212
N          N       0.87579   0.45504   0.35952  -0.26382
N          N       0.53747   0.42600   0.31306  -0.21167
N          N       0.57524   0.11335   0.30759  -0.27006
N          N       0.12608   0.54207   0.13611  -0.27095
N          N       0.46925   0.57552   0.15294  -0.24927
N          N       0.42864   0.88773   0.19816  -0.27945
N          N       0.67799   0.37393   0.36773  -0.40701
N          N       0.61811   0.30599   0.35953  -0.41752
N          N       0.68209   0.31092   0.37829  -0.43318
N          N       0.32614   0.62693   0.12912  -0.42235
N          N       0.38223   0.69302   0.13830  -0.43270
N          N       0.32025   0.69057   0.13404  -0.42654
N          N       0.87028   0.45819   0.87332  -0.28440
N          N       0.53205   0.42112   0.82397  -0.24353
N          N       0.57203   0.11220   0.81244  -0.30900
N          N       0.12114   0.54670   0.64842  -0.25705
N          N       0.46498   0.57421   0.65533  -0.25421
N          N       0.42931   0.88754   0.70211  -0.27541
N          N       0.67269   0.37285   0.85520  -0.41625
N          N       0.61651   0.30740   0.87016  -0.44083
N          N       0.67755   0.30824   0.87665  -0.40937
N          N       0.32229   0.62583   0.62197  -0.40880
N          N       0.38020   0.69230   0.64929  -0.42830
N          N       0.31847   0.69055   0.62742  -0.42590

