data_crystal

_audit_creation_method 'AiiDA-DDEC plugin'

_cell_length_a        18.89096
_cell_length_b        18.89104
_cell_length_c        11.49834

_cell_angle_alpha     90.00000
_cell_angle_beta     90.00000
_cell_angle_gamma     119.38225

_symmetry_space_group_name_Hall 'P 1'
_symmetry_space_group_name_H-M  'P 1'

loop_
_symmetry_equiv_pos_as_xyz
 'x,y,z'

loop_
_atom_site_label
_atom_site_type_symbol
_atom_site_fract_x
_atom_site_fract_y
_atom_site_fract_z
_atom_site_charge
Si         Si      0.37106   0.46566   0.36593   1.83624
Si         Si      0.53423   0.90612   0.36429   1.83378
Si         Si      0.09300   0.62647   0.36469   1.83401
Si         Si      0.46564   0.37109   0.36593   1.83588
Si         Si      0.62644   0.09302   0.36468   1.83367
Si         Si      0.90608   0.53425   0.36428   1.83365
Si         Si      0.62893   0.53439   0.36592   1.83587
Si         Si      0.46569   0.09389   0.36428   1.83377
Si         Si      0.90696   0.37350   0.36469   1.83364
Si         Si      0.53436   0.62897   0.36592   1.83629
Si         Si      0.37347   0.90699   0.36469   1.83436
Si         Si      0.09387   0.46572   0.36428   1.83350
Si         Si      0.62893   0.53439   0.63408   1.83591
Si         Si      0.46569   0.09389   0.63571   1.83358
Si         Si      0.90696   0.37350   0.63531   1.83368
Si         Si      0.53436   0.62897   0.63407   1.83621
Si         Si      0.37347   0.90699   0.63531   1.83449
Si         Si      0.09387   0.46573   0.63571   1.83355
Si         Si      0.37106   0.46566   0.63407   1.83627
Si         Si      0.53423   0.90612   0.63571   1.83375
Si         Si      0.09300   0.62647   0.63531   1.83400
Si         Si      0.46563   0.37109   0.63407   1.83600
Si         Si      0.62644   0.09302   0.63531   1.83361
Si         Si      0.90608   0.53425   0.63571   1.83365
Si         Si      0.24573   0.49224   0.25221   1.86425
Si         Si      0.50774   0.75426   0.25221   1.86457
Si         Si      0.24284   0.75713   0.24770   1.86754
Si         Si      0.49221   0.24576   0.25222   1.86420
Si         Si      0.75711   0.24287   0.24770   1.86791
Si         Si      0.75423   0.50777   0.25221   1.86375
Si         Si      0.75423   0.50777   0.74778   1.86375
Si         Si      0.49221   0.24575   0.74778   1.86416
Si         Si      0.75710   0.24287   0.75230   1.86788
Si         Si      0.50774   0.75426   0.74779   1.86444
Si         Si      0.24284   0.75713   0.75230   1.86738
Si         Si      0.24573   0.49224   0.74779   1.86423
Si         Si      0.27328   0.72672  -0.00000   1.81566
Si         Si      0.27535   0.56837   0.00000   1.85336
Si         Si      0.43162   0.72464   0.00000   1.85316
Si         Si      0.72668   0.27330   0.00000   1.81550
Si         Si      0.72459   0.43165  -0.00000   1.85302
Si         Si      0.56833   0.27538  -0.00000   1.85291
Si         Si      0.33138   0.66861   0.36414   1.91555
Si         Si      0.66858   0.33140   0.36414   1.91532
Si         Si      0.66858   0.33140   0.63586   1.91542
Si         Si      0.33138   0.66861   0.63586   1.91545
O          O       0.29422   0.44249   0.27943  -0.87314
O          O       0.56051   0.84968   0.28956  -0.87529
O          O       0.14962   0.70997   0.29436  -0.88047
O          O       0.44246   0.29424   0.27946  -0.87291
O          O       0.70994   0.14966   0.29436  -0.88057
O          O       0.84965   0.56053   0.28953  -0.87499
O          O       0.70578   0.55755   0.27946  -0.87271
O          O       0.43942   0.15033   0.28955  -0.87523
O          O       0.85032   0.29000   0.29437  -0.88052
O          O       0.55752   0.70580   0.27943  -0.87308
O          O       0.28997   0.85035   0.29437  -0.88056
O          O       0.15031   0.43945   0.28957  -0.87523
O          O       0.70578   0.55755   0.72055  -0.87275
O          O       0.43941   0.15033   0.71044  -0.87487
O          O       0.85032   0.29000   0.70563  -0.88051
O          O       0.55752   0.70581   0.72056  -0.87308
O          O       0.28997   0.85035   0.70562  -0.88053
O          O       0.15031   0.43945   0.71043  -0.87526
O          O       0.29421   0.44249   0.72057  -0.87317
O          O       0.56051   0.84968   0.71044  -0.87525
O          O       0.14962   0.70997   0.70564  -0.88046
O          O       0.44246   0.29424   0.72054  -0.87298
O          O       0.70994   0.14966   0.70563  -0.88058
O          O       0.84965   0.56053   0.71046  -0.87499
O          O       0.34793   0.47558   0.50000  -0.94887
O          O       0.52078   0.87746   0.50000  -0.95986
O          O       0.12193   0.64021   0.50000  -0.96753
O          O       0.47558   0.34799   0.50000  -0.94893
O          O       0.64017   0.12196   0.50000  -0.96750
O          O       0.87741   0.52081   0.50000  -0.95969
O          O       0.65204   0.52446   0.50000  -0.94890
O          O       0.47914   0.12255   0.50000  -0.95986
O          O       0.87802   0.35976   0.50000  -0.96752
O          O       0.52446   0.65210   0.50000  -0.94895
O          O       0.35974   0.87805   0.50000  -0.96778
O          O       0.12252   0.47918   0.50000  -0.95979
O          O       0.39176   0.39179   0.35817  -0.91513
O          O       0.60727  -0.00046   0.35307  -0.90978
O          O      -0.00049   0.60730   0.35308  -0.91005
O          O       0.60824   0.60827   0.35816  -0.91504
O          O       0.39263   0.00047   0.35307  -0.90988
O          O       0.00045   0.39267   0.35306  -0.90983
O          O       0.60824   0.60827   0.64184  -0.91504
O          O       0.39263   0.00047   0.64693  -0.90991
O          O       0.00045   0.39267   0.64694  -0.90987
O          O       0.39175   0.39179   0.64183  -0.91518
O          O       0.60727  -0.00046   0.64693  -0.90980
O          O      -0.00049   0.60731   0.64692  -0.91007
O          O       0.44902   0.55100   0.32301  -0.95996
O          O       0.44892   0.89687   0.31289  -0.94730
O          O       0.10312   0.55103   0.31288  -0.94713
O          O       0.55096   0.44905   0.32299  -0.95980
O          O       0.55100   0.10314   0.31289  -0.94724
O          O       0.89684   0.44894   0.31290  -0.94703
O          O       0.55096   0.44906   0.67701  -0.95988
O          O       0.55100   0.10314   0.68711  -0.94731
O          O       0.89684   0.44895   0.68710  -0.94713
O          O       0.44902   0.55100   0.67699  -0.95999
O          O       0.44892   0.89687   0.68711  -0.94737
O          O       0.10312   0.55103   0.68711  -0.94718
O          O       0.28832   0.57293   0.33413  -0.98156
O          O       0.42705   0.71165   0.33413  -0.98163
O          O       0.29093   0.70908   0.28376  -1.00262
O          O       0.57290   0.28833   0.33413  -0.98152
O          O       0.70906   0.29096   0.28376  -1.00269
O          O       0.71161   0.42708   0.33414  -0.98138
O          O       0.71161   0.42708   0.66586  -0.98136
O          O       0.57290   0.28834   0.66587  -0.98155
O          O       0.70906   0.29097   0.71624  -1.00273
O          O       0.42705   0.71165   0.66587  -0.98152
O          O       0.29093   0.70908   0.71624  -1.00259
O          O       0.28832   0.57293   0.66587  -0.98150
O          O       0.31827   0.68172   0.50000  -0.91708
O          O       0.68170   0.31830   0.50000  -0.91704
O          O       0.37279   0.76612  -0.00000  -0.93926
O          O       0.23387   0.62720  -0.00000  -0.93957
O          O       0.37435   0.62564   0.00000  -0.95707
O          O       0.76608   0.37282   0.00000  -0.93928
O          O       0.62560   0.37437  -0.00000  -0.95698
O          O       0.62717   0.23390   0.00000  -0.93940
O          O       0.24137   0.75863   0.10754  -0.88788
O          O       0.24798   0.51062   0.11408  -0.91353
O          O       0.48937   0.75200   0.11409  -0.91343
O          O       0.75859   0.24139   0.10754  -0.88796
O          O       0.75195   0.48939   0.11408  -0.91326
O          O       0.51058   0.24802   0.11409  -0.91340
O          O       0.75859   0.24139   0.89246  -0.88801
O          O       0.75195   0.48939   0.88591  -0.91333
O          O       0.51058   0.24801   0.88591  -0.91347
O          O       0.24137   0.75863   0.89246  -0.88792
O          O       0.24798   0.51062   0.88591  -0.91357
O          O       0.48937   0.75200   0.88591  -0.91348

