data_crystal

_audit_creation_method 'AiiDA-DDEC plugin'

_cell_length_a        11.86694
_cell_length_b        11.86694
_cell_length_c        11.86694

_cell_angle_alpha     90.00000
_cell_angle_beta     90.00000
_cell_angle_gamma     90.00000

_symmetry_space_group_name_Hall 'P 1'
_symmetry_space_group_name_H-M  'P 1'

loop_
_symmetry_equiv_pos_as_xyz
 'x,y,z'

loop_
_atom_site_label
_atom_site_type_symbol
_atom_site_fract_x
_atom_site_fract_y
_atom_site_fract_z
_atom_site_charge
Si         Si      0.00000   0.18227   0.36519   1.85522
Si         Si      0.36519   0.00000   0.18227   1.85521
Si         Si      0.18227   0.36519   0.00000   1.85521
Si         Si      0.00000   0.18227   0.63481   1.85526
Si         Si      0.36519   0.00000   0.81773   1.85518
Si         Si      0.63481   0.00000   0.18227   1.85526
Si         Si      0.81773   0.36519   0.00000   1.85518
Si         Si      0.63481   0.00000   0.81773   1.85523
Si         Si      0.18227   0.00000   0.36519   1.85522
Si         Si      0.00000   0.36519   0.18227   1.85521
Si         Si      0.36519   0.18227   0.00000   1.85521
Si         Si      0.18227   0.00000   0.63481   1.85526
Si         Si      0.00000   0.36519   0.81773   1.85518
Si         Si      0.00000   0.63481   0.18227   1.85525
Si         Si      0.36519   0.81773   0.00000   1.85518
Si         Si      0.00000   0.63481   0.81773   1.85523
Si         Si      0.00000   0.81773   0.63481   1.85524
Si         Si      0.81773   0.63481   0.00000   1.85524
Si         Si      0.00000   0.81773   0.36519   1.85518
Si         Si      0.18227   0.63481   0.00000   1.85525
Si         Si      0.81773   0.00000   0.63481   1.85524
Si         Si      0.63481   0.81773   0.00000   1.85523
Si         Si      0.81773   0.00000   0.36519   1.85518
Si         Si      0.63481   0.18227   0.00000   1.85525
O          O       0.00000   0.20372   0.50000  -0.95670
O          O       0.50000   0.00000   0.20372  -0.95670
O          O       0.20372   0.50000   0.00000  -0.95670
O          O       0.50000   0.00000   0.79628  -0.95667
O          O       0.79628   0.50000   0.00000  -0.95667
O          O       0.20372   0.00000   0.50000  -0.95670
O          O       0.00000   0.50000   0.20372  -0.95670
O          O       0.50000   0.20372   0.00000  -0.95670
O          O       0.00000   0.50000   0.79628  -0.95667
O          O       0.50000   0.79628   0.00000  -0.95667
O          O       0.00000   0.79628   0.50000  -0.95667
O          O       0.79628   0.00000   0.50000  -0.95667
O          O       0.11277   0.11277   0.32796  -0.94206
O          O       0.32796   0.11277   0.11277  -0.94206
O          O       0.11277   0.32796   0.11277  -0.94206
O          O       0.11277   0.11277   0.67204  -0.94210
O          O       0.32796   0.11277   0.88723  -0.94207
O          O       0.11277   0.32796   0.88723  -0.94207
O          O       0.88723   0.11277   0.32796  -0.94207
O          O       0.67204   0.11277   0.11277  -0.94209
O          O       0.88723   0.32796   0.11277  -0.94207
O          O       0.88723   0.11277   0.67204  -0.94211
O          O       0.67204   0.11277   0.88723  -0.94210
O          O       0.88723   0.32796   0.88723  -0.94206
O          O       0.11277   0.88723   0.32796  -0.94207
O          O       0.11277   0.67204   0.11277  -0.94209
O          O       0.32796   0.88723   0.11277  -0.94207
O          O       0.11277   0.88723   0.67204  -0.94211
O          O       0.11277   0.67204   0.88723  -0.94210
O          O       0.32796   0.88723   0.88723  -0.94206
O          O       0.88723   0.88723   0.67204  -0.94211
O          O       0.67204   0.88723   0.88723  -0.94211
O          O       0.88723   0.67204   0.88723  -0.94211
O          O       0.88723   0.88723   0.32796  -0.94206
O          O       0.67204   0.88723   0.11277  -0.94210
O          O       0.88723   0.67204   0.11277  -0.94210
O          O       0.00000   0.30427   0.30427  -0.86962
O          O       0.30427   0.00000   0.30427  -0.86962
O          O       0.30427   0.30427   0.00000  -0.86962
O          O       0.00000   0.30427   0.69573  -0.86959
O          O       0.30427   0.00000   0.69573  -0.86959
O          O       0.69573   0.00000   0.30427  -0.86959
O          O       0.69573   0.30427   0.00000  -0.86959
O          O       0.69573   0.00000   0.69573  -0.86956
O          O       0.00000   0.69573   0.30427  -0.86959
O          O       0.30427   0.69573   0.00000  -0.86959
O          O       0.00000   0.69573   0.69573  -0.86956
O          O       0.69573   0.69573   0.00000  -0.86956

