data_crystal

_audit_creation_method 'AiiDA-DDEC plugin'

_cell_length_a        18.20497
_cell_length_b        18.20497
_cell_length_c         7.43754

_cell_angle_alpha     90.00000
_cell_angle_beta     90.00000
_cell_angle_gamma     119.99697

_symmetry_space_group_name_Hall 'P 1'
_symmetry_space_group_name_H-M  'P 1'

loop_
_symmetry_equiv_pos_as_xyz
 'x,y,z'

loop_
_atom_site_label
_atom_site_type_symbol
_atom_site_fract_x
_atom_site_fract_y
_atom_site_fract_z
_atom_site_charge
Si         Si      0.16616   0.50020   0.21256   1.84898
Si         Si      0.49980   0.66606   0.21255   1.84901
Si         Si      0.33396   0.83381   0.21249   1.84890
Si         Si      0.83384   0.49981   0.21256   1.84903
Si         Si      0.50020   0.33395   0.21255   1.84882
Si         Si      0.66604   0.16620   0.21250   1.84849
Si         Si      0.49981   0.83385   0.21256   1.84883
Si         Si      0.33395   0.50020   0.21255   1.84891
Si         Si      0.16620   0.66605   0.21250   1.84864
Si         Si      0.50019   0.16616   0.21256   1.84907
Si         Si      0.66605   0.49981   0.21256   1.84898
Si         Si      0.83380   0.33396   0.21249   1.84859
Si         Si      0.83384   0.49981   0.78744   1.84892
Si         Si      0.50020   0.33395   0.78744   1.84879
Si         Si      0.66604   0.16620   0.78750   1.84844
Si         Si      0.16616   0.50020   0.78744   1.84885
Si         Si      0.49980   0.66606   0.78744   1.84886
Si         Si      0.33396   0.83381   0.78750   1.84884
Si         Si      0.50019   0.16616   0.78744   1.84895
Si         Si      0.66605   0.49981   0.78744   1.84896
Si         Si      0.83380   0.33396   0.78750   1.84857
Si         Si      0.49981   0.83385   0.78744   1.84874
Si         Si      0.33395   0.50020   0.78744   1.84880
Si         Si      0.16620   0.66605   0.78750   1.84863
Si         Si      0.09453   0.35749   0.50000   1.83816
Si         Si      0.64251   0.73705   0.50000   1.83865
Si         Si      0.26282   0.90546   0.50000   1.83884
Si         Si      0.90547   0.64251   0.50000   1.83821
Si         Si      0.35749   0.26295   0.50000   1.83860
Si         Si      0.73718   0.09455   0.50000   1.83883
Si         Si      0.64251   0.90548   0.50000   1.83831
Si         Si      0.26295   0.35749   0.50000   1.83855
Si         Si      0.09455   0.73718   0.50000   1.83872
Si         Si      0.35749   0.09453   0.50000   1.83818
Si         Si      0.73705   0.64252   0.50000   1.83859
Si         Si      0.90545   0.26282   0.50000   1.83882
O          O       0.26638   0.53286   0.25056  -0.95426
O          O       0.46714   0.73362   0.25057  -0.95415
O          O       0.26648   0.73353   0.25024  -0.95421
O          O       0.73362   0.46715   0.25057  -0.95429
O          O       0.53286   0.26639   0.25056  -0.95434
O          O       0.73352   0.26648   0.25024  -0.95382
O          O       0.73362   0.46715   0.74943  -0.95427
O          O       0.53286   0.26639   0.74944  -0.95431
O          O       0.73352   0.26648   0.74976  -0.95377
O          O       0.26638   0.53286   0.74943  -0.95420
O          O       0.46714   0.73362   0.74943  -0.95408
O          O       0.26648   0.73353   0.74976  -0.95418
O          O       0.10558   0.41279   0.31938  -0.92803
O          O       0.58721   0.69285   0.31937  -0.92812
O          O       0.30694   0.89422   0.31939  -0.92823
O          O       0.89442   0.58722   0.31938  -0.92815
O          O       0.41279   0.30715   0.31937  -0.92791
O          O       0.69306   0.10578   0.31939  -0.92814
O          O       0.58722   0.89442   0.31938  -0.92805
O          O       0.30715   0.41280   0.31937  -0.92803
O          O       0.10578   0.69307   0.31939  -0.92810
O          O       0.41278   0.10559   0.31938  -0.92808
O          O       0.69285   0.58721   0.31937  -0.92793
O          O       0.89422   0.30694   0.31939  -0.92829
O          O       0.89442   0.58722   0.68062  -0.92815
O          O       0.41279   0.30715   0.68062  -0.92793
O          O       0.69306   0.10578   0.68061  -0.92816
O          O       0.10558   0.41279   0.68062  -0.92803
O          O       0.58721   0.69285   0.68062  -0.92812
O          O       0.30694   0.89422   0.68061  -0.92822
O          O       0.41278   0.10559   0.68062  -0.92809
O          O       0.69285   0.58721   0.68063  -0.92795
O          O       0.89422   0.30694   0.68061  -0.92832
O          O       0.58722   0.89442   0.68062  -0.92805
O          O       0.30715   0.41280   0.68062  -0.92804
O          O       0.10578   0.69307   0.68061  -0.92812
O          O       0.14613   0.57311   0.28227  -0.89709
O          O       0.42688   0.57312   0.28222  -0.89722
O          O       0.42690   0.85388   0.28227  -0.89714
O          O       0.85387   0.42690   0.28227  -0.89721
O          O       0.57312   0.42688   0.28222  -0.89710
O          O       0.57310   0.14613   0.28227  -0.89709
O          O       0.85387   0.42690   0.71773  -0.89716
O          O       0.57312   0.42688   0.71777  -0.89705
O          O       0.57310   0.14613   0.71772  -0.89702
O          O       0.14613   0.57311   0.71773  -0.89701
O          O       0.42688   0.57312   0.71777  -0.89715
O          O       0.42690   0.85388   0.71773  -0.89707
O          O       0.14481   0.48207   0.00000  -0.94280
O          O       0.51795   0.66287   0.00000  -0.94290
O          O       0.33728   0.85535   0.00000  -0.94219
O          O       0.85519   0.51794   0.00000  -0.94293
O          O       0.48205   0.33714   0.00000  -0.94266
O          O       0.66272   0.14466   0.00000  -0.94215
O          O       0.51794   0.85520   0.00000  -0.94287
O          O       0.33714   0.48206   0.00000  -0.94280
O          O       0.14466   0.66273   0.00000  -0.94210
O          O       0.48206   0.14481   0.00000  -0.94282
O          O       0.66286   0.51795   0.00000  -0.94282
O          O       0.85534   0.33728   0.00000  -0.94224
O          O       0.00003   0.27486   0.50000  -0.85875
O          O       0.72513   0.72513   0.50000  -0.85871
O          O       0.27485   0.00003   0.50000  -0.85855
O          O      -0.00002   0.72515   0.50000  -0.85865
O          O       0.27487   0.27488   0.50000  -0.85853
O          O       0.72515  -0.00002   0.50000  -0.85884
O          O       0.16166   0.32332   0.50000  -0.91356
O          O       0.67668   0.83835   0.50000  -0.91375
O          O       0.16148   0.83852   0.50000  -0.91324
O          O       0.83834   0.67668   0.50000  -0.91363
O          O       0.32331   0.16166   0.50000  -0.91362
O          O       0.83852   0.16148   0.50000  -0.91354

