data_crystal

_audit_creation_method 'AiiDA-DDEC plugin'

_cell_length_a        14.01600
_cell_length_b        14.01600
_cell_length_c        14.01600

_cell_angle_alpha     90.00000
_cell_angle_beta     90.00000
_cell_angle_gamma     90.00000

_symmetry_space_group_name_Hall 'P 1'
_symmetry_space_group_name_H-M  'P 1'

loop_
_symmetry_equiv_pos_as_xyz
 'x,y,z'

loop_
_atom_site_label
_atom_site_type_symbol
_atom_site_fract_x
_atom_site_fract_y
_atom_site_fract_z
_atom_site_charge
Si         Si      0.24333   0.24333   0.39349   1.79313
Si         Si      0.39349   0.24333   0.24333   1.79313
Si         Si      0.24333   0.39349   0.24333   1.79313
Si         Si      0.24333   0.75666   0.60650   1.79293
Si         Si      0.39349   0.75666   0.75666   1.79320
Si         Si      0.24333   0.60650   0.75666   1.79294
Si         Si      0.75666   0.24333   0.60650   1.79293
Si         Si      0.60650   0.24333   0.75666   1.79293
Si         Si      0.75666   0.39349   0.75666   1.79320
Si         Si      0.75666   0.75666   0.39349   1.79321
Si         Si      0.60650   0.75666   0.24333   1.79293
Si         Si      0.75666   0.60650   0.24333   1.79293
Si         Si      0.75666   0.75666   0.60650   1.79303
Si         Si      0.60650   0.75666   0.75666   1.79302
Si         Si      0.75666   0.60650   0.75666   1.79303
Si         Si      0.75666   0.24333   0.39349   1.79313
Si         Si      0.60650   0.24333   0.24333   1.79284
Si         Si      0.75666   0.39349   0.24333   1.79315
Si         Si      0.24333   0.75666   0.39349   1.79313
Si         Si      0.39349   0.75666   0.24333   1.79313
Si         Si      0.24333   0.60650   0.24333   1.79284
Si         Si      0.24333   0.24333   0.60650   1.79284
Si         Si      0.39349   0.24333   0.75666   1.79315
Si         Si      0.24333   0.39349   0.75666   1.79315
Si         Si      0.11338   0.11338   0.50000   1.85417
Si         Si      0.50000   0.11338   0.11338   1.85417
Si         Si      0.11338   0.50000   0.11338   1.85417
Si         Si      0.11338   0.88662   0.50000   1.85403
Si         Si      0.50000   0.88662   0.88662   1.85385
Si         Si      0.11338   0.50000   0.88662   1.85403
Si         Si      0.88662   0.11338   0.50000   1.85403
Si         Si      0.50000   0.11338   0.88662   1.85403
Si         Si      0.88662   0.50000   0.88662   1.85385
Si         Si      0.88662   0.88662   0.50000   1.85385
Si         Si      0.50000   0.88662   0.11338   1.85403
Si         Si      0.88662   0.50000   0.11338   1.85403
O          O       0.27733   0.27733   0.50000  -0.90626
O          O       0.50000   0.27733   0.27733  -0.90626
O          O       0.27733   0.50000   0.27733  -0.90626
O          O       0.27733   0.72267   0.50000  -0.90618
O          O       0.50000   0.72267   0.72267  -0.90618
O          O       0.27733   0.50000   0.72267  -0.90618
O          O       0.72267   0.27733   0.50000  -0.90618
O          O       0.50000   0.27733   0.72267  -0.90618
O          O       0.72267   0.50000   0.72267  -0.90618
O          O       0.72267   0.72267   0.50000  -0.90618
O          O       0.50000   0.72267   0.27733  -0.90617
O          O       0.72267   0.50000   0.27733  -0.90618
O          O       0.33440   0.20038   0.33440  -0.89584
O          O       0.33440   0.33440   0.20038  -0.89584
O          O       0.20038   0.33440   0.33440  -0.89584
O          O       0.33440   0.79962   0.66559  -0.89586
O          O       0.33440   0.66559   0.79962  -0.89587
O          O       0.20038   0.66559   0.66559  -0.89564
O          O       0.66559   0.20038   0.66559  -0.89564
O          O       0.66559   0.33440   0.79962  -0.89586
O          O       0.79962   0.33440   0.66559  -0.89586
O          O       0.66559   0.79962   0.33440  -0.89586
O          O       0.66559   0.66559   0.20038  -0.89564
O          O       0.79962   0.66559   0.33440  -0.89586
O          O       0.66559   0.79962   0.66559  -0.89578
O          O       0.66559   0.66559   0.79962  -0.89579
O          O       0.79962   0.66559   0.66559  -0.89579
O          O       0.66559   0.20038   0.33440  -0.89574
O          O       0.66559   0.33440   0.20038  -0.89574
O          O       0.79962   0.33440   0.33440  -0.89591
O          O       0.33440   0.79962   0.33440  -0.89591
O          O       0.33440   0.66559   0.20038  -0.89574
O          O       0.20038   0.66559   0.33440  -0.89574
O          O       0.33440   0.20038   0.66559  -0.89574
O          O       0.33440   0.33440   0.79962  -0.89592
O          O       0.20038   0.33440   0.66559  -0.89574
O          O       0.16135   0.16135   0.40482  -0.90438
O          O       0.40482   0.16135   0.16135  -0.90438
O          O       0.16135   0.40482   0.16135  -0.90438
O          O       0.16135   0.83865   0.59518  -0.90445
O          O       0.40482   0.83865   0.83865  -0.90444
O          O       0.16135   0.59518   0.83865  -0.90446
O          O       0.83865   0.16135   0.59518  -0.90445
O          O       0.59518   0.16135   0.83865  -0.90445
O          O       0.83865   0.40482   0.83865  -0.90444
O          O       0.83865   0.83865   0.40482  -0.90444
O          O       0.59518   0.83865   0.16135  -0.90445
O          O       0.83865   0.59518   0.16135  -0.90445
O          O       0.83865   0.83865   0.59518  -0.90448
O          O       0.59518   0.83865   0.83865  -0.90448
O          O       0.83865   0.59518   0.83865  -0.90448
O          O       0.83865   0.16135   0.40482  -0.90443
O          O       0.59518   0.16135   0.16135  -0.90441
O          O       0.83865   0.40482   0.16135  -0.90443
O          O       0.16135   0.83865   0.40482  -0.90443
O          O       0.40482   0.83865   0.16135  -0.90443
O          O       0.16135   0.59518   0.16135  -0.90441
O          O       0.16135   0.16135   0.59518  -0.90441
O          O       0.40482   0.16135   0.83865  -0.90443
O          O       0.16135   0.40482   0.83865  -0.90443
O          O       0.13457   0.00000   0.50000  -0.93350
O          O       0.50000   0.13457   0.00000  -0.93350
O          O       0.00000   0.50000   0.13457  -0.93350
O          O       0.13457   0.50000   0.00000  -0.93350
O          O       0.00000   0.13457   0.50000  -0.93350
O          O       0.50000   0.00000   0.13457  -0.93350
O          O       0.50000   0.86543   0.00000  -0.93340
O          O       0.00000   0.50000   0.86543  -0.93340
O          O       0.00000   0.86543   0.50000  -0.93340
O          O       0.50000   0.00000   0.86543  -0.93340
O          O       0.86543   0.00000   0.50000  -0.93340
O          O       0.86543   0.50000   0.00000  -0.93340

