data_crystal

_audit_creation_method 'AiiDA-DDEC plugin'

_cell_length_a         7.78513
_cell_length_b         9.17397
_cell_length_c        10.70070

_cell_angle_alpha     110.14684
_cell_angle_beta     93.46478
_cell_angle_gamma     115.66496

_symmetry_space_group_name_Hall 'P 1'
_symmetry_space_group_name_H-M  'P 1'

loop_
_symmetry_equiv_pos_as_xyz
 'x,y,z'

loop_
_atom_site_label
_atom_site_type_symbol
_atom_site_fract_x
_atom_site_fract_y
_atom_site_fract_z
_atom_site_charge
Ni         Ni      0.81749   0.90019   0.85928   0.97759
Ni         Ni      0.15949   0.07608   0.12580   0.97585
Ni         Ni      0.49586   0.99359   0.99485   1.01602
H          H       0.47871   0.75846   0.30036   0.15239
H          H       0.66088   0.98219   0.37732   0.14368
H          H       0.61082   0.54264   0.43582   0.15068
H          H       0.86497   0.66677   0.46222   0.15865
H          H       0.95604   0.74489   0.22422   0.12755
H          H       0.76506   0.60171   0.07316   0.13967
H          H       0.80202   0.18544   0.95499   0.39208
H          H       0.69451   0.04913   0.74234   0.36952
H          H       0.51078   0.24520   0.69365   0.15372
H          H       0.33902   0.01885   0.61718   0.14499
H          H       0.28079   0.42289   0.54145   0.14240
H          H       0.05332   0.27494   0.55515   0.13804
H          H       0.04997   0.26234   0.81209   0.13108
H          H       0.27260   0.40666   0.93812   0.13892
H          H       0.20259   0.80278   0.04820   0.39384
H          H       0.31885   0.96188   0.25574   0.36838
C          C       0.75344   0.91090   0.13464   0.51282
C          C       0.72668   0.81059   0.21647   0.08219
C          C       0.64083   0.84713   0.33808  -0.25132
C          C       0.71255   0.80453   0.44622   0.04852
C          C       0.72261   0.63612   0.40278  -0.26800
C          C       0.70270   0.55205   0.25340   0.07061
C          C       0.79339   0.67310   0.18462  -0.25526
C          C       0.75674   0.90454   0.59127   0.51227
C          C       0.56460   0.36218   0.17554   0.55608
C          C       0.23226   0.06932   0.85386   0.51555
C          C       0.26511   0.17984   0.78051   0.07697
C          C       0.34985   0.15066   0.65776  -0.25341
C          C       0.26747   0.18825   0.54977   0.07389
C          C       0.21476   0.33478   0.59337  -0.25777
C          C       0.27238   0.43508   0.74550   0.05620
C          C       0.21199   0.32621   0.82685  -0.25382
C          C       0.24328   0.09810   0.40438   0.50774
C          C       0.41383   0.62508   0.81231   0.54484
O          O       0.69204   0.02264   0.15632  -0.52586
O          O       0.85431   0.88323   0.04100  -0.64512
O          O       0.71069   0.06596   0.88682  -0.83662
O          O       0.40486   0.30682   0.21541  -0.54827
O          O       0.60989   0.27049   0.07788  -0.55819
O          O       0.68809   0.01808   0.63652  -0.46924
O          O       0.85305   0.87553   0.67156  -0.52703
O          O       0.30131   0.96274   0.83259  -0.53060
O          O       0.12233   0.08539   0.94309  -0.64632
O          O       0.28714   0.92757   0.10923  -0.83998
O          O       0.55530   0.68182   0.75548  -0.55217
O          O       0.39091   0.71962   0.92284  -0.56938
O          O       0.33164   0.00082   0.36363  -0.46564
O          O       0.13959   0.11756   0.32149  -0.51872

