data_crystal

_audit_creation_method 'AiiDA-DDEC plugin'

_cell_length_a         7.78163
_cell_length_b         9.54339
_cell_length_c        16.02497

_cell_angle_alpha     92.24894
_cell_angle_beta     85.88031
_cell_angle_gamma     95.41265

_symmetry_space_group_name_Hall 'P 1'
_symmetry_space_group_name_H-M  'P 1'

loop_
_symmetry_equiv_pos_as_xyz
 'x,y,z'

loop_
_atom_site_label
_atom_site_type_symbol
_atom_site_fract_x
_atom_site_fract_y
_atom_site_fract_z
_atom_site_charge
In         In      0.24858   0.74207   0.59597   1.41256
In         In      0.75641   0.76028   0.56226   1.40766
In         In      0.78665   0.24944   0.08877   1.39604
In         In      0.30463   0.22747   0.04337   1.43718
H          H       0.46942   0.02890   0.31999   0.13981
H          H       0.64612   0.46476   0.35850   0.14323
H          H       0.33513   0.24559   0.55476   0.14304
H          H       0.03111   0.98305   0.81541   0.14482
H          H       0.82275   0.54760   0.82133   0.14147
H          H       0.09015   0.74210   0.03008   0.13627
H          H       0.50531   0.00406   0.83632   0.14458
H          H       0.36000   0.55861   0.84201   0.14441
H          H       0.61942   0.77047   0.04756   0.13729
H          H       0.94569   0.98046   0.30982   0.14374
H          H       0.16202   0.41329   0.29994   0.13875
H          H       0.91452   0.25013   0.53041   0.13761
C          C       0.39635   0.12328   0.44130  -0.04080
C          C       0.47159   0.12465   0.35915  -0.09557
C          C       0.55643   0.24967   0.32822  -0.00899
C          C       0.57042   0.37023   0.38066  -0.07276
C          C       0.48668   0.36968   0.46109  -0.02542
C          C       0.39564   0.24710   0.49141  -0.09517
C          C       0.35458   0.98867   0.48373   0.50387
C          C       0.64182   0.25163   0.24188   0.56363
C          C       0.50819   0.49938   0.51633   0.61277
C          C       0.06361   0.87602   0.92841  -0.01061
C          C       0.00655   0.88472   0.84822  -0.08596
C          C       0.92009   0.76670   0.80964  -0.01679
C          C       0.88973   0.63927   0.85126  -0.08147
C          C       0.95473   0.62917   0.93024  -0.04605
C          C       0.04072   0.74766   0.96869  -0.09264
C          C       0.15431   0.00078   0.97069   0.55126
C          C       0.87556   0.77772   0.72098   0.57701
C          C       0.93611   0.49298   0.97293   0.48673
C          C       0.56932   0.89983   0.94621  -0.01884
C          C       0.50250   0.90451   0.86756  -0.08288
C          C       0.43032   0.78030   0.82979  -0.01340
C          C       0.42051   0.65368   0.87109  -0.07748
C          C       0.48796   0.64907   0.94929  -0.05315
C          C       0.56603   0.77214   0.98676  -0.08406
C          C       0.63878   0.03284   0.98842   0.58990
C          C       0.36096   0.77708   0.74587   0.55139
C          C       0.46870   0.51074   0.98797   0.48855
C          C       0.92901   0.10307   0.42585  -0.02575
C          C       0.97346   0.08330   0.34013  -0.09291
C          C       0.05572   0.19556   0.29503  -0.02014
C          C       0.09420   0.32679   0.33473  -0.07767
C          C       0.03891   0.34860   0.41879  -0.04131
C          C       0.95566   0.23645   0.46460  -0.09986
C          C       0.86006   0.98075   0.47628   0.54678
C          C       0.09851   0.18118   0.20300   0.59892
C          C       0.07234   0.49298   0.45583   0.47808
O          O       0.48750   0.91062   0.46489  -0.04553
O          O       0.23021   0.95553   0.53430  -0.44432
O          O       0.60081   0.15096   0.18946  -0.52630
O          O       0.75596   0.35184   0.22163  -0.53126
O          O       0.38505   0.53256   0.56686  -0.56119
O          O       0.66050   0.56303   0.50591  -0.53312
O          O       0.15807   0.12269   0.93841  -0.54284
O          O       0.22853   0.98593   0.03764  -0.52680
O          O       0.98182   0.84778   0.67084  -0.55383
O          O       0.73156   0.71567   0.69769  -0.52741
O          O       0.82274   0.39454   0.96337  -0.46313
O          O       0.06103   0.48899   0.02684  -0.05975
O          O      -0.00057   0.63912   0.57127  -0.48452
O          O       0.48133   0.78395   0.51241  -0.47739
O          O       0.56253   0.14558   0.98520  -0.59759
O          O       0.77623   0.03371   0.02725  -0.48915
O          O       0.39624   0.87911   0.69673  -0.54272
O          O       0.26632   0.66597   0.72350  -0.52764
O          O       0.54538   0.50860   0.05980  -0.05531
O          O       0.38493   0.40639   0.95647  -0.46098
O          O       0.87237   0.85579   0.44450  -0.52947
O          O       0.79320  -0.00116   0.55081  -0.52544
O          O       0.98501   0.12736   0.15568  -0.56253
O          O       0.25247   0.22953   0.17837  -0.52547
O          O       0.15582   0.59300   0.42271  -0.44725
O          O       0.99317   0.49773   0.53507  -0.06465
O          O       0.05123   0.35673   0.06919  -0.48413
O          O       0.52759   0.37091   0.09540  -0.44801

