data_crystal

_audit_creation_method 'AiiDA-DDEC plugin'

_cell_length_a         9.39328
_cell_length_b        11.03974
_cell_length_c        12.43347

_cell_angle_alpha     95.52966
_cell_angle_beta     78.13353
_cell_angle_gamma     115.40894

_symmetry_space_group_name_Hall 'P 1'
_symmetry_space_group_name_H-M  'P 1'

loop_
_symmetry_equiv_pos_as_xyz
 'x,y,z'

loop_
_atom_site_label
_atom_site_type_symbol
_atom_site_fract_x
_atom_site_fract_y
_atom_site_fract_z
_atom_site_charge
Mn         Mn      0.68365   0.59805   0.62490   1.08714
Mn         Mn      0.69898   0.41698   0.38747   1.07483
Mn         Mn      0.09863   0.41728   0.12924   1.08900
Mn         Mn      0.29346   0.59508   0.89312   1.07101
H          H       0.61937   0.78736   0.50256   0.11882
H          H       0.16577   0.81212   0.59092   0.13204
H          H       0.19950   0.47304   0.40429   0.13049
H          H       0.42391   0.06546   0.53060   0.12733
H          H       0.70617   0.26289   0.77904   0.10639
H          H       0.71304   0.04809   0.81734   0.12039
H          H       0.36362   0.20432   0.09260   0.13332
H          H       0.83890   0.22159   0.00279   0.12286
H          H       0.74014   0.53682   0.90491   0.13167
H          H       0.36258   0.94485   0.03617   0.12943
H          H       0.45254   0.76166   0.28856   0.10572
H          H       0.67845   0.97870   0.32187   0.12120
C          C       0.52081   0.54814   0.41337   0.56730
C          C       0.41943   0.62149   0.45135  -0.04054
C          C       0.49174   0.74593   0.50217  -0.15256
C          C       0.40295   0.81602   0.55358   0.07112
C          C       0.23985   0.76238   0.54899  -0.10819
C          C       0.16717   0.64066   0.49375  -0.03326
C          C       0.25659   0.56916   0.44439  -0.08921
C          C       0.99056   0.58625   0.49681   0.60825
C          C       0.48312   0.93862   0.61707   0.04107
C          C       0.48325   0.06010   0.59525  -0.14055
C          C       0.56420   0.17736   0.65274  -0.03900
C          C       0.64430   0.17192   0.73432  -0.08496
C          C       0.64839   0.05133   0.75522  -0.11094
C          C       0.56874   0.93443   0.69706  -0.05802
C          C       0.57422   0.30595   0.61644   0.60051
C          C       0.56314   0.80048   0.71941   0.61969
C          C       0.41806   0.42844   0.99755   0.60961
C          C       0.53813   0.37198   0.99405  -0.03102
C          C       0.48717   0.25145   0.04979  -0.11000
C          C       0.59483   0.19640   0.05422   0.06954
C          C       0.75384   0.26381   0.00214  -0.15319
C          C       0.80829   0.38766   0.95191  -0.03943
C          C       0.69940   0.44122   0.94478  -0.09198
C          C       0.98381   0.46023   0.91618   0.56924
C          C       0.55223   0.07698   0.12014   0.04240
C          C       0.42900   0.95405   0.10084  -0.13942
C          C       0.39377   0.83985   0.16034  -0.03714
C          C       0.48128   0.85015   0.24211  -0.08615
C          C       0.60811   0.97190   0.26026  -0.10788
C          C       0.64527   0.08543   0.19945  -0.06283
C          C       0.27615   0.70830   0.12491   0.59608
C          C       0.78017   0.21898   0.21616   0.61622
O          O       0.64895   0.58521   0.45910  -0.63197
O          O       0.49270   0.45493   0.34356  -0.49096
O          O       0.60887   0.40868   0.68075  -0.56440
O          O       0.54920   0.30635   0.51907  -0.58541
O          O       0.68783   0.77793   0.68528  -0.56004
O          O       0.42871   0.71368   0.76587  -0.57823
O          O       0.91644   0.64039   0.56877  -0.55973
O          O       0.92615   0.49190   0.43045  -0.57705
O          O       0.29228   0.37960   0.07170  -0.56134
O          O       0.44736   0.51955   0.92948  -0.57787
O          O       0.21049   0.60748   0.18965  -0.56116
O          O       0.24988   0.70332   0.02719  -0.58415
O          O       0.74340   0.31546   0.25363  -0.58915
O          O       0.92498   0.23326   0.18510  -0.55060
O          O       0.07358   0.42440   0.96348  -0.63218
O          O       0.05044   0.55255   0.84688  -0.49218

