data_crystal

_audit_creation_method 'AiiDA-DDEC plugin'

_cell_length_a         7.17115
_cell_length_b         7.48659
_cell_length_c        11.11547

_cell_angle_alpha     107.58609
_cell_angle_beta     106.55143
_cell_angle_gamma     96.25581

_symmetry_space_group_name_Hall 'P 1'
_symmetry_space_group_name_H-M  'P 1'

loop_
_symmetry_equiv_pos_as_xyz
 'x,y,z'

loop_
_atom_site_label
_atom_site_type_symbol
_atom_site_fract_x
_atom_site_fract_y
_atom_site_fract_z
_atom_site_charge
Al         Al      0.29107   0.29111   0.58314   1.66062
Al         Al      0.70893   0.70890   0.41687   1.66070
Al         Al     -0.00000   0.50001   0.50000   1.64598
Al         Al      0.50000   0.00000   0.50000   1.64702
H          H       0.01870   0.34128   0.67087   0.41710
H          H       0.14071   0.93772   0.46334   0.41392
H          H       0.65099   0.32961   0.67087   0.41716
H          H       0.32266   0.52411   0.46310   0.41427
H          H       0.98130   0.65873   0.32913   0.41705
H          H       0.85929   0.06229   0.53667   0.41395
H          H       0.34900   0.67040   0.32913   0.41713
H          H       0.67733   0.47590   0.53690   0.41421
H          H       0.54483   0.33445  -0.00009   0.12637
H          H       0.45516   0.66556   0.00009   0.12622
C          C       0.41994   0.06944   0.74992   0.62561
C          C       0.45175   0.03365   0.87878  -0.03014
C          C       0.32927   0.68006   0.75001   0.62553
C          C       0.42646   0.84490   0.87881  -0.03093
C          C       0.58006   0.93058   0.25009   0.62564
C          C       0.54824   0.96636   0.12122  -0.02996
C          C       0.67072   0.31995   0.24999   0.62527
C          C       0.57353   0.15511   0.12119  -0.03095
C          C       0.52356   0.18813  -0.00004  -0.11427
C          C       0.47643   0.81188   0.00004  -0.11448
O          O       0.02427   0.30478   0.58066  -0.92530
O          O       0.23980   0.03926   0.46333  -0.97619
O          O       0.32296   0.19743   0.73221  -0.60716
O          O       0.50241   0.97550   0.67108  -0.57682
O          O       0.55548   0.27581   0.58067  -0.92633
O          O       0.22328   0.42298   0.46322  -0.97581
O          O       0.40770   0.53374   0.73255  -0.60789
O          O       0.16880   0.69564   0.67088  -0.57616
O          O       0.97572   0.69523   0.41934  -0.92522
O          O       0.76020   0.96075   0.53667  -0.97623
O          O       0.67703   0.80258   0.26779  -0.60755
O          O       0.49758   0.02451   0.32892  -0.57647
O          O       0.44451   0.72420   0.41933  -0.92628
O          O       0.77671   0.57703   0.53678  -0.97571
O          O       0.59229   0.46628   0.26745  -0.60747
O          O       0.83119   0.30437   0.32912  -0.57642

