data_crystal

_audit_creation_method 'AiiDA-DDEC plugin'

_cell_length_a         6.52514
_cell_length_b        11.23606
_cell_length_c        11.23547

_cell_angle_alpha     71.37526
_cell_angle_beta     71.99568
_cell_angle_gamma     71.99447

_symmetry_space_group_name_Hall 'P 1'
_symmetry_space_group_name_H-M  'P 1'

loop_
_symmetry_equiv_pos_as_xyz
 'x,y,z'

loop_
_atom_site_label
_atom_site_type_symbol
_atom_site_fract_x
_atom_site_fract_y
_atom_site_fract_z
_atom_site_charge
Al         Al      0.00000   0.00000   0.00000   1.61477
Al         Al      0.50000   0.00000   0.00000   1.61513
H          H       0.37853   0.88665   0.40180   0.15339
H          H       0.12150   0.59829   0.11330   0.15364
H          H       0.62147   0.11333   0.59822   0.15348
H          H       0.87850   0.40172   0.88668   0.15354
C          C       0.05949   0.99500   0.36851  -0.03481
C          C       0.84127   0.05691   0.42420   0.05693
C          C       0.21394   0.93761   0.44376  -0.02603
C          C       0.12744   0.98973   0.22944   0.61569
C          C       0.66714   0.12866   0.35011   0.50403
C          C       0.44056   0.63151   0.00495  -0.03460
C          C       0.65877   0.57579   0.94304   0.05719
C          C       0.28608   0.55628   0.06236  -0.02633
C          C       0.37262   0.77058   0.01021   0.61565
C          C       0.83289   0.64988   0.87125   0.50385
C          C       0.94051   0.00498   0.63151  -0.03499
C          C       0.15872   0.94307   0.57582   0.05723
C          C       0.78606   0.06238   0.55625  -0.02579
C          C       0.87256   0.01026   0.77058   0.61562
C          C       0.33286   0.87131   0.64991   0.50369
C          C       0.55944   0.36850   0.99504  -0.03482
C          C       0.34123   0.42422   0.05694   0.05722
C          C       0.71393   0.44373   0.93762  -0.02624
C          C       0.62738   0.22943   0.98980   0.61574
C          C       0.16711   0.35013   0.12873   0.50379
O          O       0.96969   0.01566   0.17483  -0.51381
O          O       0.33431   0.95863   0.18247  -0.52647
O          O       0.67520   0.24542   0.30232  -0.29228
O          O       0.51828   0.08400   0.34292  -0.34674
O          O       0.53036   0.82517   0.98428  -0.51389
O          O       0.16575   0.81753   0.04132  -0.52618
O          O       0.82480   0.69764   0.75449  -0.29247
O          O       0.98172   0.65711   0.91591  -0.34661
O          O       0.03031   0.98433   0.82518  -0.51380
O          O       0.66569   0.04137   0.81754  -0.52626
O          O       0.32481   0.75456   0.69768  -0.29215
O          O       0.48170   0.91598   0.65711  -0.34661
O          O       0.46964   0.17483   0.01572  -0.51386
O          O       0.83426   0.18247   0.95869  -0.52631
O          O       0.17521   0.30236   0.24549  -0.29226
O          O       0.01827   0.34291   0.08408  -0.34661
O          O       0.25000   0.05293   0.94707  -0.79534
O          O       0.75000   0.94708   0.05294  -0.79534

