data_crystal

_audit_creation_method 'AiiDA-DDEC plugin'

_cell_length_a         8.09992
_cell_length_b         8.41891
_cell_length_c        11.68126

_cell_angle_alpha     92.35045
_cell_angle_beta     90.43035
_cell_angle_gamma     89.89421

_symmetry_space_group_name_Hall 'P 1'
_symmetry_space_group_name_H-M  'P 1'

loop_
_symmetry_equiv_pos_as_xyz
 'x,y,z'

loop_
_atom_site_label
_atom_site_type_symbol
_atom_site_fract_x
_atom_site_fract_y
_atom_site_fract_z
_atom_site_charge
Zn         Zn      0.25000   0.25000   0.25000   0.99224
Zn         Zn      0.25000   0.25000   0.75000   0.98976
Zn         Zn      0.75000   0.75000   0.75000   0.99321
Zn         Zn      0.75000   0.75000   0.25000   0.99013
H          H       0.95699   0.46056   0.19198   0.05706
H          H       0.95794   0.04273   0.80809   0.05754
H          H       0.45740   0.96057   0.69221   0.05750
H          H       0.45806   0.54219   0.30825   0.05781
H          H       0.04259   0.53943   0.80779   0.05734
H          H       0.04199   0.95777   0.19179   0.05790
H          H       0.54310   0.03952   0.30794   0.05692
H          H       0.54202   0.45733   0.69187   0.05774
H          H       0.15232   0.24921   0.49940   0.05505
H          H       0.34768   0.25083   0.00062   0.05504
H          H       0.84788   0.74911   0.50059   0.05442
H          H       0.65213   0.75112  -0.00058   0.05426
C          C       0.01894   0.52000   0.26595   0.48957
C          C       0.01921   0.98095   0.73536   0.48840
C          C       0.51922   0.02005   0.76620   0.48786
C          C       0.51914   0.48082   0.23527   0.48867
C          C       0.98078   0.47995   0.73379   0.48756
C          C       0.98088   0.01916   0.26475   0.48884
C          C       0.48109   0.98003   0.23402   0.48966
C          C       0.48077   0.51907   0.76463   0.48865
C          C       0.28807   0.24932   0.50011   0.49122
C          C       0.21193   0.25070  -0.00010   0.49104
C          C       0.71214   0.75139   0.49993   0.49252
C          C       0.78787   0.74869   0.00007   0.49250
O          O       0.15372   0.46576   0.30518  -0.43456
O          O       0.34627   0.03423   0.19482  -0.43461
O          O       0.36781   0.24183   0.40655  -0.44809
O          O       0.15292   0.03427   0.69534  -0.43310
O          O       0.34708   0.46573   0.80466  -0.43324
O          O       0.36773   0.25697   0.59455  -0.44911
O          O       0.45805   0.14489   0.81448  -0.43229
O          O       0.04195   0.35511   0.68551  -0.43197
O          O       0.13228   0.24303   0.90546  -0.44884
O          O       0.45822   0.35450   0.18876  -0.43242
O          O       0.04180   0.14548   0.31127  -0.43256
O          O       0.13219   0.25817   0.09347  -0.44822
O          O       0.84603   0.53421   0.69446  -0.43342
O          O       0.65398   0.96578   0.80553  -0.43377
O          O       0.63258   0.76204   0.59351  -0.44888
O          O       0.84720   0.96571   0.30470  -0.43348
O          O       0.65280   0.53429   0.19529  -0.43328
O          O       0.63234   0.74338   0.40555  -0.44951
O          O       0.54215   0.85520   0.18565  -0.43269
O          O       0.95785   0.64480   0.31435  -0.43276
O          O       0.86767   0.75661   0.09445  -0.44957
O          O       0.54150   0.64568   0.81082  -0.43282
O          O       0.95850   0.85432   0.68919  -0.43246
O          O       0.86742   0.73794   0.90649  -0.44872

