data_crystal

_audit_creation_method 'AiiDA-DDEC plugin'

_cell_length_a         5.87392
_cell_length_b         7.27171
_cell_length_c        13.66928

_cell_angle_alpha     90.00958
_cell_angle_beta     90.00000
_cell_angle_gamma     91.64615

_symmetry_space_group_name_Hall 'P 1'
_symmetry_space_group_name_H-M  'P 1'

loop_
_symmetry_equiv_pos_as_xyz
 'x,y,z'

loop_
_atom_site_label
_atom_site_type_symbol
_atom_site_fract_x
_atom_site_fract_y
_atom_site_fract_z
_atom_site_charge
Mn         Mn      0.61097   0.25925   0.84328   1.24371
Mn         Mn      0.81897   0.20484   0.34334   1.24374
Mn         Mn      0.31816   0.70539   0.13061   1.25905
Mn         Mn      0.11178   0.75862   0.63055   1.25892
P          P       0.10981   0.40174   0.75921   1.51737
P          P       0.32015   0.06234   0.25922   1.51734
P          P       0.82098   0.56473   0.21579   1.51425
P          P       0.60897   0.89929   0.71577   1.51390
H          H       0.97732   0.59485   0.86308   0.41221
H          H       0.45251   0.86878   0.36285   0.41213
H          H       0.95247   0.37090   0.11199   0.41357
H          H       0.47743   0.09291   0.61190   0.41364
C          C       0.38302   0.40616   0.00455   0.47538
C          C       0.04697   0.05787   0.50455   0.47523
C          C       0.54753   0.55992   0.97063   0.47545
C          C       0.88249   0.90411   0.47057   0.47529
O          O       0.34056   0.31202   0.75000  -0.68502
O          O       0.38990   0.25281   0.96224  -0.43514
O          O       0.25000   0.44850   0.07450  -0.49979
O          O       0.13068   0.55852   0.84185  -0.68076
O          O       0.91829   0.26431   0.78715  -0.73537
O          O       0.05944   0.49446   0.65911  -0.62499
O          O       0.08938   0.15203   0.25001  -0.68485
O          O       0.04007   0.21125   0.46229  -0.43509
O          O       0.18001   0.01550   0.57448  -0.49975
O          O       0.29923   0.90557   0.34184  -0.68063
O          O       0.51164   0.19977   0.28719  -0.73526
O          O       0.37057   0.96958   0.15912  -0.62521
O          O       0.59033   0.65513   0.22470  -0.67896
O          O       0.53955   0.71320   0.01355  -0.43772
O          O       0.68053   0.51881   0.90090  -0.49698
O          O       0.79949   0.40827   0.13305  -0.68112
O          O       0.01321   0.70187   0.18760  -0.73189
O          O       0.87053   0.47241   0.31579  -0.62339
O          O       0.83961   0.80886   0.72466  -0.67867
O          O       0.89048   0.75081   0.51346  -0.43763
O          O       0.74952   0.94521   0.40084  -0.49690
O          O       0.63044   0.05571   0.63303  -0.68117
O          O       0.41667   0.76216   0.68760  -0.73173
O          O       0.55945   0.99163   0.81578  -0.62316

