data_crystal

_audit_creation_method 'AiiDA-DDEC plugin'

_cell_length_a        12.00430
_cell_length_b        12.27430
_cell_length_c        12.27463

_cell_angle_alpha     76.16684
_cell_angle_beta     60.72442
_cell_angle_gamma     60.72713

_symmetry_space_group_name_Hall 'P 1'
_symmetry_space_group_name_H-M  'P 1'

loop_
_symmetry_equiv_pos_as_xyz
 'x,y,z'

loop_
_atom_site_label
_atom_site_type_symbol
_atom_site_fract_x
_atom_site_fract_y
_atom_site_fract_z
_atom_site_charge
Ga         Ga      0.19746   0.61404   0.00041   1.44514
Ga         Ga      0.81667   0.38121   0.99484   1.44499
Ga         Ga      0.56388   0.50040   0.88121   1.44491
Ga         Ga      0.95026   0.49484   0.11404   1.44493
H          H       0.24301   0.55615   0.30423   0.12351
H          H       0.10805   0.43929   0.69105   0.12347
H          H       0.55144   0.80419   0.93938   0.12382
H          H       0.29955   0.19101   0.05625   0.12345
H          H       0.51523   0.18998   0.93866   0.12101
H          H       0.64852   0.80524   0.05695   0.11748
H          H       0.20621   0.55677   0.69002   0.12094
H          H       0.45765   0.43865   0.30524   0.12090
H          H       0.16232   0.48013   0.91093   0.39410
H          H       0.55813   0.51512   0.08432   0.39393
H          H       0.39483   0.41093   0.01504   0.39402
H          H       0.82573   0.58431   0.98008   0.39397
H          H       0.86671   0.49757   0.49763   0.14082
H          H       0.11672   0.99762   0.99752   0.14070
H          H       0.89175   0.99761   0.99759   0.14214
H          H       0.64174   0.49765   0.49762   0.14209
C          C       0.04821   0.54623   0.26761   0.60831
C          C       0.05721   0.52508   0.38846  -0.03422
C          C       0.17132   0.52882   0.38954  -0.12867
C          C       0.86680   0.44902   0.72764   0.60840
C          C       0.97548   0.47022   0.60680  -0.03404
C          C       0.09434   0.46659   0.60573  -0.12901
C          C       0.34682   0.76760   0.94902   0.60817
C          C       0.33464   0.88844   0.97023  -0.03421
C          C       0.45242   0.88951   0.96665  -0.12892
C          C       0.06815   0.22764   0.04626   0.60820
C          C       0.19800   0.10679   0.02512  -0.03401
C          C       0.31317   0.10570   0.02889  -0.12857
C          C       0.70836   0.22893   0.95157   0.60531
C          C       0.70031   0.10736   0.97149  -0.03238
C          C       0.58681   0.10568   0.96712  -0.13494
C          C       0.89360   0.76632   0.04376   0.60487
C          C       0.78385   0.88788   0.02392  -0.03166
C          C       0.66423   0.88956   0.02845  -0.13185
C          C       0.41230   0.54373   0.72895   0.60538
C          C       0.42414   0.52387   0.60737  -0.03199
C          C       0.30623   0.52833   0.60570  -0.13479
C          C       0.68969   0.45158   0.26631   0.60486
C          C       0.56007   0.47149   0.38788  -0.03227
C          C       0.44492   0.46708   0.38955  -0.13469
C          C       0.95722   0.49762   0.49763  -0.09591
C          C       0.19262   0.49772   0.49764   0.06232
C          C       0.20720   0.99762   0.99762  -0.09586
C          C       0.44257   0.99760  -0.00219   0.06187
C          C       0.80117  -0.00238  -0.00234  -0.09385
C          C       0.56559   0.99762  -0.00218   0.07093
C          C       0.55119   0.49767   0.49762  -0.09381
C          C       0.31565   0.49772   0.49763   0.07060
O          O       0.10438   0.61411   0.18718  -0.55268
O          O       0.98785   0.49141   0.25560  -0.52713
O          O       0.91043   0.38116   0.80807  -0.55261
O          O       0.73962   0.50379   0.73964  -0.52731
O          O       0.47086   0.68718   0.88115  -0.55248
O          O       0.23161   0.75562   0.00380  -0.52722
O          O       0.04389   0.30807   0.11414  -0.55259
O          O       0.99580   0.23964   0.99143  -0.52705
O          O       0.64537   0.31171   0.88878  -0.58002
O          O       0.77350   0.23947   0.00190  -0.53709
O          O       0.85063   0.68350   0.10654  -0.57965
O          O       0.01960   0.75580   0.99339  -0.53708
O          O       0.28652   0.60652   0.81174  -0.58026
O          O       0.52778   0.49336   0.73947  -0.53703
O          O       0.70949   0.38878   0.18353  -0.57979
O          O       0.76536   0.50191   0.25579  -0.53687
O          O       0.14302   0.48569   0.99670  -0.88328
O          O       0.63017   0.50957  -0.00146  -0.88328
O          O       0.38107   0.49670   0.00956  -0.88330
O          O       0.89216   0.49852   0.98567  -0.88318

