data_crystal

_audit_creation_method 'AiiDA-DDEC plugin'

_cell_length_a         9.57977
_cell_length_b        11.77701
_cell_length_c        14.63867

_cell_angle_alpha     89.94365
_cell_angle_beta     89.76304
_cell_angle_gamma     98.97560

_symmetry_space_group_name_Hall 'P 1'
_symmetry_space_group_name_H-M  'P 1'

loop_
_symmetry_equiv_pos_as_xyz
 'x,y,z'

loop_
_atom_site_label
_atom_site_type_symbol
_atom_site_fract_x
_atom_site_fract_y
_atom_site_fract_z
_atom_site_charge
Fe         Fe      0.35142   0.34268   0.88571   1.38000
Fe         Fe      0.24308   0.98441   0.05022   1.50916
Fe         Fe      0.14753   0.16219   0.38603   1.37883
Fe         Fe      0.25568   0.51909   0.54976   1.50626
Fe         Fe      0.64760   0.66133   0.11423   1.37974
Fe         Fe      0.75659   0.01964   0.95089   1.50794
Fe         Fe      0.85203   0.84132   0.61535   1.37781
Fe         Fe      0.74413   0.48383   0.44956   1.50674
P          P       0.09012   0.12309   0.89215   1.57858
P          P       0.52943   0.18621   0.01098   1.60129
P          P       0.41039   0.38095   0.39077   1.57818
P          P       0.96951   0.31831   0.51132   1.59895
P          P       0.90907   0.88138   0.10994   1.58068
P          P       0.46978   0.81780   0.98902   1.60038
P          P       0.58946   0.62163   0.60824   1.57609
P          P       0.03053   0.68569   0.48903   1.59916
H          H       0.13085   0.06447   0.75160   0.43755
H          H       0.65324   0.30653   0.10550   0.44072
H          H       0.37136   0.44025   0.24990   0.43743
H          H       0.84534   0.19815   0.60651   0.44070
H          H       0.86751   0.93833   0.25103   0.43766
H          H       0.34662   0.69811   0.89367   0.44056
H          H       0.62755   0.56409   0.74964   0.43744
H          H       0.15552   0.80804   0.39564   0.44092
C          C       0.43857   0.48670   0.03380   0.47456
C          C       0.26976   0.48117   0.74285   0.48211
C          C       0.33718   0.38472   0.69921   0.47657
C          C       0.06173   0.01691   0.53461   0.47579
C          C       0.22791   0.02284   0.24313   0.48353
C          C       0.16044   0.11930   0.19964   0.47451
C          C       0.56158   0.51726   0.96600   0.47463
C          C       0.72997   0.52269   0.25683   0.48286
C          C       0.66135   0.61853   0.30053   0.47457
C          C       0.93813   0.98744   0.46793   0.47438
C          C       0.77048   0.98074   0.75777   0.48166
C          C       0.83887   0.88489   0.80142   0.47427
O          O       0.46583   0.23131   0.92371  -0.72874
O          O       0.16986   0.24721   0.89310  -0.71815
O          O       0.38275   0.31411   0.75448  -0.43607
O          O       0.33358   0.41399   0.00677  -0.42914
O          O       0.26621   0.48210   0.82978  -0.46780
O          O       0.55239   0.46897   0.88944  -0.44867
O          O       0.18102   0.03808   0.93240  -0.72184
O          O       0.67413   0.14960   0.99237  -0.73707
O          O       0.42462   0.09097   0.05545  -0.78297
O          O       0.94728   0.11932   0.93980  -0.69296
O          O       0.22452   0.55183   0.69023  -0.44285
O          O       0.34507   0.38031   0.61399  -0.44130
O          O       0.05386   0.08606   0.78847  -0.66604
O          O       0.55798   0.29341   0.08013  -0.66688
O          O       0.03560   0.27480   0.42413  -0.72884
O          O       0.32939   0.25731   0.39217  -0.71894
O          O       0.11500   0.18998   0.25512  -0.43515
O          O       0.16601   0.09053   0.50713  -0.42977
O          O       0.23156   0.02168   0.32999  -0.46894
O          O       0.94587   0.03709   0.39188  -0.44754
O          O       0.32072   0.46649   0.43204  -0.71909
O          O       0.82436   0.35359   0.49237  -0.73669
O          O       0.07286   0.41391   0.55592  -0.78485
O          O       0.55309   0.38372   0.43750  -0.69181
O          O       0.27314   0.95221   0.19034  -0.44433
O          O       0.15253   0.12379   0.11450  -0.43966
O          O       0.44758   0.41846   0.28706  -0.66578
O          O       0.94020   0.21023   0.57999  -0.66658
O          O       0.53361   0.77250   0.07610  -0.72925
O          O       0.82916   0.75737   0.10907  -0.72069
O          O       0.61382   0.68822   0.24535  -0.43551
O          O       0.66634   0.59034   0.99296  -0.43009
O          O       0.73369   0.52154   0.16997  -0.46692
O          O       0.44774   0.53469   0.11047  -0.44843
O          O       0.81866   0.96623   0.06880  -0.72046
O          O       0.32508   0.85432   0.00775  -0.73756
O          O       0.57481   0.91311   0.94470  -0.78319
O          O       0.05219   0.88506   0.06276  -0.69459
O          O       0.77603   0.45250   0.30955  -0.44364
O          O       0.65452   0.62342   0.38576  -0.44047
O          O       0.94511   0.91895   0.21355  -0.66520
O          O       0.44135   0.71056   0.91988  -0.66671
O          O       0.96508   0.72941   0.57649  -0.72701
O          O       0.67121   0.74496   0.60742  -0.71739
O          O       0.88475   0.81426   0.74602  -0.43560
O          O       0.83381   0.91362   0.49521  -0.42785
O          O       0.76503   0.98061   0.67091  -0.46637
O          O       0.05373   0.96736   0.61076  -0.44916
O          O       0.67904   0.53562   0.56767  -0.71617
O          O       0.17548   0.64979   0.50760  -0.73576
O          O       0.92656   0.59052   0.44449  -0.78119
O          O       0.44754   0.61913   0.56049  -0.68831
O          O       0.72625   0.05203   0.81037  -0.44289
O          O       0.84716   0.88077   0.88656  -0.43934
O          O       0.55128   0.58453   0.71188  -0.66699
O          O       0.05943   0.79350   0.42018  -0.66701

