data_crystal

_audit_creation_method 'AiiDA-DDEC plugin'

_cell_length_a         7.25628
_cell_length_b        10.46458
_cell_length_c        14.21959

_cell_angle_alpha     125.28617
_cell_angle_beta     98.52312
_cell_angle_gamma     63.25746

_symmetry_space_group_name_Hall 'P 1'
_symmetry_space_group_name_H-M  'P 1'

loop_
_symmetry_equiv_pos_as_xyz
 'x,y,z'

loop_
_atom_site_label
_atom_site_type_symbol
_atom_site_fract_x
_atom_site_fract_y
_atom_site_fract_z
_atom_site_charge
Cd         Cd      0.82163   0.04571   0.24410   0.96904
Cd         Cd      0.20701   0.94817   0.75734   0.96795
Cd         Cd      0.01841   0.99417   0.00080   0.97960
Cd         Cd      0.51718   0.99390   0.00090   0.95437
H          H       0.72850   0.58394   0.51877   0.13269
H          H       0.80289   0.00525   0.56509   0.13132
H          H       0.82576   0.56812   0.22061   0.14237
H          H       0.30231   0.40874   0.48126   0.13343
H          H       0.21941   0.99207   0.43807   0.13091
H          H       0.21345   0.42499   0.78120   0.14284
C          C       0.79282   0.37967   0.28079   0.57092
C          C       0.78098   0.55765   0.36195  -0.02178
C          C       0.75320   0.64374   0.48331  -0.10142
C          C       0.76290   0.80528   0.55745   0.01789
C          C       0.79413   0.88114   0.50993  -0.10146
C          C       0.81442   0.79694   0.38899  -0.02257
C          C       0.80923   0.63422   0.31474  -0.08658
C          C       0.84024   0.87825   0.33678   0.53102
C          C       0.73601   0.89216   0.68384   0.26731
C          C       0.24997   0.60929   0.71873   0.57065
C          C       0.25592   0.43369   0.63835  -0.02319
C          C       0.27593   0.34927   0.51710  -0.09874
C          C       0.26486   0.18896   0.44429   0.01946
C          C       0.23160   0.11515   0.49279  -0.09978
C          C       0.21287   0.19964   0.61370  -0.02556
C          C       0.22582   0.35957   0.68701  -0.08672
C          C       0.18840   0.11961   0.66676   0.53097
C          C       0.29172   0.09966   0.31755   0.26958
N          N       0.85544   0.96586   0.75666  -0.24829
N          N       0.78700   0.02512   0.86357  -0.07136
N          N       0.43453   0.08805   0.25786  -0.25424
N          N       0.40092   0.00171   0.14665  -0.05372
N          N       0.17617   0.01917   0.24437  -0.25745
N          N       0.24786   0.95946   0.13622  -0.07047
N          N       0.59427   0.90204   0.74266  -0.24746
N          N       0.63252   0.98230   0.85317  -0.06150
O          O       0.72300   0.33078   0.32597  -0.51380
O          O       0.87627   0.29708   0.17687  -0.50036
O          O       0.87247   0.79318   0.22531  -0.48536
O          O       0.81568   0.03719   0.40354  -0.47999
O          O       0.80440   0.96634   0.06571  -0.78742
O          O       0.30719   0.66064   0.67159  -0.50996
O          O       0.18048   0.69051   0.82600  -0.50487
O          O       0.16174   0.20182   0.77800  -0.48442
O          O       0.19958   0.96400   0.60023  -0.48357
O          O       0.23045   0.02276   0.93484  -0.78024

