data_crystal

_audit_creation_method 'AiiDA-DDEC plugin'

_cell_length_a         7.87878
_cell_length_b         7.89444
_cell_length_c        11.65565

_cell_angle_alpha     107.76652
_cell_angle_beta     108.01859
_cell_angle_gamma     97.34631

_symmetry_space_group_name_Hall 'P 1'
_symmetry_space_group_name_H-M  'P 1'

loop_
_symmetry_equiv_pos_as_xyz
 'x,y,z'

loop_
_atom_site_label
_atom_site_type_symbol
_atom_site_fract_x
_atom_site_fract_y
_atom_site_fract_z
_atom_site_charge
Cd         Cd      0.36761   0.62749   0.24903   0.44121
Cd         Cd      0.49900  -0.00261   0.00419   0.91456
Cd         Cd      0.62918   0.36472   0.75153   0.44084
Cd         Cd      0.99623   0.50024   0.50155   0.91591
H          H       0.86993   0.20191   0.13927   0.28238
H          H       0.84291   0.98214   0.12796   0.28173
H          H       0.81026   0.90313   0.89391   0.08229
H          H       0.90932   0.13546   0.93930   0.08386
H          H       0.08658   0.87874   0.06647   0.08340
H          H       0.18553   0.11066   0.10733   0.07966
H          H       0.16439   0.02335   0.87793   0.28281
H          H       0.12812   0.80254   0.86625   0.28424
H          H       0.20151   0.87193   0.63968   0.28361
H          H       0.98055   0.84003   0.62564   0.28126
H          H       0.90125   0.81478   0.39392   0.07966
H          H       0.13440   0.91532   0.43969   0.08261
H          H       0.87464   0.08724   0.56640   0.08470
H          H       0.10710   0.18803   0.60936   0.08265
H          H       0.02202   0.16072   0.37766   0.28024
H          H       0.80077   0.12777   0.36605   0.28153
C          C       0.45546   0.90605   0.25200  -0.05957
C          C       0.52985   0.09023   0.75304  -0.05731
C          C       0.58190   0.59413   0.41350  -0.02354
C          C       0.41996   0.41610   0.09323  -0.02443
C          C       0.90240   0.02260   0.97592  -0.02055
C          C       0.09464   0.98893   0.02719  -0.02150
C          C       0.90421   0.46088   0.75221  -0.05946
C          C       0.09263   0.53028   0.25472  -0.05443
C          C       0.59217   0.58156   0.91232  -0.02544
C          C       0.41078   0.42189   0.59907  -0.03259
C          C       0.02106   0.90540   0.47649  -0.01702
C          C       0.98615   0.09656   0.52871  -0.02786
N          N       0.52047   0.02814   0.22723  -0.37150
N          N       0.46441   0.96749   0.77578  -0.36674
N          N       0.71006   0.55647   0.47540  -0.38702
N          N       0.46617   0.29368   0.03623  -0.38327
N          N       0.82070   0.06663   0.07694  -0.55041
N          N       0.18141   0.93846   0.92932  -0.54186
N          N       0.02695   0.52654   0.72939  -0.36862
N          N       0.97000   0.46729   0.27824  -0.37143
N          N       0.55375   0.70971   0.97290  -0.38988
N          N       0.29469   0.47632   0.53992  -0.38162
N          N       0.06671   0.82202   0.57627  -0.55319
N          N       0.93672   0.18212   0.42976  -0.53991

