data_crystal

_audit_creation_method 'AiiDA-DDEC plugin'

_cell_length_a         7.88407
_cell_length_b         4.78007
_cell_length_c        10.26603

_cell_angle_alpha     110.24586
_cell_angle_beta     85.65417
_cell_angle_gamma     81.49664

_symmetry_space_group_name_Hall 'P 1'
_symmetry_space_group_name_H-M  'P 1'

loop_
_symmetry_equiv_pos_as_xyz
 'x,y,z'

loop_
_atom_site_label
_atom_site_type_symbol
_atom_site_fract_x
_atom_site_fract_y
_atom_site_fract_z
_atom_site_charge
Cd         Cd      0.03360   0.06929   0.04761   0.92956
Ni         Ni      0.52344   0.54006   0.91057   0.31191
H          H       0.97962   0.75580   0.77035   0.27051
H          H       0.24988   0.55694   0.67257   0.05233
H          H       0.18108   0.91086   0.54074   0.09921
H          H       0.48887   0.61016   0.50320   0.06448
H          H       0.96138   0.73087   0.19826   0.27017
H          H       0.67912   0.04022   0.22126   0.09026
H          H       0.74306   0.67493   0.35166   0.06105
H          H       0.44255   0.96491   0.36966   0.10100
H          H       0.02873   0.01762   0.31036   0.29544
H          H       0.74484   0.33231   0.35982   0.05414
H          H       0.78408   0.98747   0.49479   0.09454
H          H       0.47831   0.27253   0.51101   0.05462
H          H       0.99623   0.11402   0.79435   0.27234
H          H       0.32685   0.84758   0.79818   0.04149
H          H       0.23669   0.21442   0.67797   0.05941
H          H       0.53777   0.90645   0.64244   0.08013
C          C       0.72453   0.50255   0.78699  -0.07270
C          C       0.40773   0.91198   0.05204  -0.02623
C          C       0.30693   0.43994   0.94760   0.00285
C          C       0.66908   0.43378   0.02932   0.03818
C          C       0.23070   0.81102   0.72670   0.02918
C          C       0.26733   0.95938   0.62318  -0.16511
C          C       0.45877   0.86489   0.55807  -0.14268
C          C       0.76083   0.07553   0.30551   0.02895
C          C       0.70923   0.93062   0.40691  -0.17601
C          C       0.51382   0.01733   0.45930  -0.12721
N          N       0.86779   0.44177   0.72788  -0.33283
N          N       0.32021   0.10185   0.14984  -0.35686
N          N       0.16711   0.44087   0.99701  -0.39668
N          N       0.77350   0.39740   0.09950  -0.39001
N          N       0.05519   0.91806   0.80949  -0.55872
N          N       0.94368   0.96285   0.23759  -0.55667

