data_crystal

_audit_creation_method 'AiiDA-DDEC plugin'

_cell_length_a        10.98519
_cell_length_b        11.94785
_cell_length_c        19.86418

_cell_angle_alpha     90.00106
_cell_angle_beta     89.99519
_cell_angle_gamma     89.95737

_symmetry_space_group_name_Hall 'P 1'
_symmetry_space_group_name_H-M  'P 1'

loop_
_symmetry_equiv_pos_as_xyz
 'x,y,z'

loop_
_atom_site_label
_atom_site_type_symbol
_atom_site_fract_x
_atom_site_fract_y
_atom_site_fract_z
_atom_site_charge
Zn         Zn      0.14325   0.44745   0.08818   0.95668
Zn         Zn      0.86198   0.94744   0.41183   0.95703
Zn         Zn      0.86197   0.94744   0.58816   0.95690
Zn         Zn      0.14326   0.44745   0.91182   0.95676
Zn         Zn      0.90595   0.48961  -0.00000   1.02554
Zn         Zn      0.09925   0.98959   0.50000   1.02592
H          H       0.55238   0.13053   0.15317   0.12000
H          H       0.64024   0.06340   0.26132   0.13227
H          H       0.96579   0.25056   0.22314   0.13834
H          H       0.47841   0.30969   0.10790   0.13024
H          H       0.45310   0.63003   0.34682   0.11993
H          H       0.36521   0.56301   0.23868   0.12847
H          H       0.03970   0.75068   0.27687   0.13846
H          H       0.52704   0.80934   0.39210   0.13034
H          H       0.45312   0.63014   0.65318   0.11984
H          H       0.36524   0.56312   0.76133   0.12828
H          H       0.03959   0.75053   0.72308   0.13849
H          H       0.52695   0.80943   0.60790   0.13023
H          H       0.55240   0.13054   0.84685   0.12006
H          H       0.64026   0.06342   0.73869   0.13241
H          H       0.96582   0.25056   0.77685   0.13842
H          H       0.47845   0.30969   0.89211   0.13047
H          H       0.80192   0.21162   0.00000   0.11462
H          H       0.09566   0.60880   0.00000   0.43946
H          H       0.20366   0.71135   0.49999   0.11476
H          H       0.90934   0.10880   0.50000   0.43979
C          C       0.89536   0.35040   0.10901   0.60633
C          C       0.82396   0.26714   0.14805  -0.09250
C          C       0.70651   0.23237   0.12704   0.06849
C          C       0.64166   0.15936   0.16926  -0.14007
C          C       0.69095   0.12054   0.22932  -0.07200
C          C       0.80879   0.15203   0.24888  -0.02955
C          C       0.87480   0.22512   0.20787  -0.09421
C          C       0.86308   0.10408   0.31207   0.56087
C          C       0.64907   0.26105   0.06162   0.07573
C          C       0.52706   0.29550   0.06101  -0.14229
C          C       0.11005   0.85034   0.39101   0.60542
C          C       0.18153   0.76703   0.35196  -0.08939
C          C       0.29898   0.73210   0.37296   0.06719
C          C       0.36382   0.65899   0.33074  -0.13925
C          C       0.31451   0.62024   0.27068  -0.06926
C          C       0.19668   0.65191   0.25112  -0.02941
C          C       0.13069   0.72510   0.29213  -0.09547
C          C       0.14234   0.60405   0.18794   0.56147
C          C       0.35645   0.76073   0.43837   0.07577
C          C       0.47841   0.79516   0.43899  -0.14234
C          C       0.10999   0.85029   0.60898   0.60596
C          C       0.18146   0.76697   0.64801  -0.08941
C          C       0.29895   0.73210   0.62702   0.06705
C          C       0.36382   0.65905   0.66925  -0.13906
C          C       0.31450   0.62029   0.72931  -0.06931
C          C       0.19663   0.65188   0.74886  -0.02957
C          C       0.13061   0.72501   0.70783  -0.09531
C          C       0.14231   0.60403   0.81205   0.56138
C          C       0.35641   0.76074   0.56161   0.07578
C          C       0.47837   0.79520   0.56100  -0.14239
C          C       0.89537   0.35041   0.89099   0.60658
C          C       0.82398   0.26715   0.85194  -0.09271
C          C       0.70653   0.23237   0.87296   0.06867
C          C       0.64168   0.15937   0.83075  -0.14005
C          C       0.69097   0.12055   0.77069  -0.07215
C          C       0.80881   0.15204   0.75112  -0.02967
C          C       0.87482   0.22513   0.79212  -0.09439
C          C       0.86309   0.10409   0.68792   0.56126
C          C       0.64909   0.26106   0.93839   0.07562
C          C       0.52708   0.29550   0.93900  -0.14238
C          C       0.70899   0.24363   0.00001  -0.17156
C          C       0.46611   0.31220   0.00001  -0.03681
C          C       0.33589   0.34825   0.00000   0.60245
C          C       0.29655   0.74333   0.49999  -0.17168
C          C       0.53932   0.81192   0.50000  -0.03633
C          C       0.66945   0.84816   0.50000   0.60188
O          O       0.83478   0.42960   0.07968  -0.54514
O          O       0.01058   0.33869   0.10594  -0.54387
O          O       0.96715   0.12809   0.33182  -0.54820
O          O       0.78913   0.03380   0.34261  -0.58586
O          O       0.28542   0.36195   0.05728  -0.54432
O          O       0.17053   0.92950   0.42034  -0.54512
O          O       0.99484   0.83868   0.39408  -0.54425
O          O       0.03822   0.62815   0.16823  -0.54857
O          O       0.21627   0.53370   0.15737  -0.58546
O          O       0.71987   0.86198   0.44272  -0.54425
O          O       0.17050   0.92946   0.57966  -0.54532
O          O       0.99478   0.83865   0.60591  -0.54440
O          O       0.03820   0.62812   0.83178  -0.54846
O          O       0.21626   0.53370   0.84262  -0.58548
O          O       0.71986   0.86198   0.55728  -0.54431
O          O       0.83479   0.42960   0.92032  -0.54505
O          O       0.01059   0.33870   0.89406  -0.54406
O          O       0.96717   0.12808   0.66816  -0.54837
O          O       0.78914   0.03382   0.65739  -0.58593
O          O       0.28543   0.36196   0.94273  -0.54444
O          O       0.07823   0.52879   0.00000  -0.87587
O          O       0.92690   0.02879   0.50000  -0.87630

