data_crystal

_audit_creation_method 'AiiDA-DDEC plugin'

_cell_length_a         7.05817
_cell_length_b         8.26870
_cell_length_c        11.69879

_cell_angle_alpha     90.78581
_cell_angle_beta     80.05875
_cell_angle_gamma     77.38860

_symmetry_space_group_name_Hall 'P 1'
_symmetry_space_group_name_H-M  'P 1'

loop_
_symmetry_equiv_pos_as_xyz
 'x,y,z'

loop_
_atom_site_label
_atom_site_type_symbol
_atom_site_fract_x
_atom_site_fract_y
_atom_site_fract_z
_atom_site_charge
Eu         Eu      0.21176   0.00631   0.09599   1.72488
Eu         Eu      0.77037   0.99333   0.90887   1.72453
H          H       0.86313   0.61690   0.10912   0.14481
H          H       0.55766   0.40117   0.10657   0.14392
H          H       0.17379   0.06133   0.52109   0.15387
H          H       0.11944   0.38284   0.89582   0.14497
H          H       0.42489   0.59863   0.89813   0.14425
H          H       0.80303   0.93826   0.48376   0.15384
C          C       0.54971   0.72702   0.10434   0.64000
C          C       0.71972   0.58792   0.10977  -0.15613
C          C       0.70033   0.42984   0.10901  -0.15529
C          C       0.87264   0.28922   0.10402   0.64046
C          C       0.11662   0.01551   0.34605   0.59294
C          C       0.07025   0.02068   0.47410  -0.15158
C          C       0.43285   0.27280   0.90069   0.64046
C          C       0.26283   0.41186   0.89512  -0.15539
C          C       0.28222   0.56994   0.89574  -0.15634
C          C       0.10996   0.71062   0.90073   0.63950
C          C       0.86083   0.98429   0.65871   0.59240
C          C       0.90670   0.97893   0.53061  -0.15184
O          O       0.58491   0.86364   0.05994  -0.71906
O          O       0.37467   0.71456   0.13999  -0.55816
O          O       0.86330   0.14629   0.05947  -0.71939
O          O       0.02605   0.30585   0.14009  -0.55628
O          O       0.01042   0.95888   0.28378  -0.51124
O          O       0.26502   0.06913   0.29517  -0.51303
O          O       0.39759   0.13623   0.94514  -0.72017
O          O       0.60792   0.28528   0.86512  -0.55744
O          O       0.11969   0.85353   0.94513  -0.71829
O          O       0.95632   0.69406   0.86488  -0.55677
O          O       0.96771   0.04107   0.72050  -0.51188
O          O       0.71264   0.93092   0.71005  -0.51255

