data_crystal

_audit_creation_method 'AiiDA-DDEC plugin'

_cell_length_a        10.08859
_cell_length_b        10.98688
_cell_length_c         9.58961

_cell_angle_alpha     85.18392
_cell_angle_beta     75.60931
_cell_angle_gamma     75.69330

_symmetry_space_group_name_Hall 'P 1'
_symmetry_space_group_name_H-M  'P 1'

loop_
_symmetry_equiv_pos_as_xyz
 'x,y,z'

loop_
_atom_site_label
_atom_site_type_symbol
_atom_site_fract_x
_atom_site_fract_y
_atom_site_fract_z
_atom_site_charge
Gd         Gd      0.69281   0.65843   0.06173   1.99060
Gd         Gd      0.30719   0.34158   0.93828   1.99059
Ni         Ni      0.76205   0.86998   0.63284   0.80114
Ni         Ni      0.23795   0.13002   0.36716   0.80113
H          H       0.54784   0.70643   0.74613   0.09491
H          H       0.34824   0.66800   0.65800   0.13045
H          H       0.31217   0.76328   0.41753   0.11326
H          H       0.03529   0.20932   0.65700   0.12402
H          H       0.82048   0.38525   0.74232   0.14253
H          H       0.72184   0.53014   0.56002   0.11957
H          H       0.45216   0.29357   0.25387   0.09493
H          H       0.65176   0.33200   0.34200   0.13056
H          H       0.68784   0.23673   0.58247   0.11337
H          H       0.96471   0.79069   0.34301   0.12404
H          H       0.17951   0.61475   0.25768   0.14259
H          H       0.27816   0.46985   0.43998   0.11960
C          C       0.52742   0.74494   0.64339   0.10358
C          C       0.41749   0.72371   0.59241  -0.09991
C          C       0.39772   0.77706   0.46000  -0.03775
C          C       0.48770   0.85064   0.38152  -0.10655
C          C       0.59532   0.86858   0.43955   0.06627
C          C       0.69460   0.95087   0.36787   0.51399
C          C       0.46555   0.90469   0.23713   0.65682
C          C       0.99062   0.27823   0.58295   0.11124
C          C       0.87116   0.37434   0.62843  -0.09584
C          C       0.81681   0.45635   0.52648  -0.05488
C          C       0.88429   0.44191   0.38023  -0.03774
C          C       0.00791   0.34718   0.34380   0.07595
C          C       0.10005   0.33417   0.19534   0.53543
C          C       0.81802   0.52027   0.26787   0.59010
C          C       0.45137   0.51445   0.07582   0.49735
C          C       0.47258   0.25506   0.35661   0.10354
C          C       0.58251   0.27629   0.40759  -0.09981
C          C       0.60229   0.22295   0.54000  -0.03777
C          C       0.51230   0.14937   0.61848  -0.10658
C          C       0.40468   0.13142   0.56045   0.06627
C          C       0.30540   0.04913   0.63213   0.51417
C          C       0.53445   0.09531   0.76287   0.65689
C          C       0.00937   0.72178   0.41706   0.11125
C          C       0.12884   0.62566   0.37157  -0.09580
C          C       0.18319   0.54365   0.47352  -0.05489
C          C       0.11571   0.55809   0.61977  -0.03772
C          C       0.99210   0.65282   0.65620   0.07588
C          C       0.89996   0.66583   0.80466   0.53568
C          C       0.18198   0.47973   0.73213   0.59004
C          C       0.54864   0.48555   0.92419   0.49743
N          N       0.61382   0.81508   0.56781  -0.25536
N          N       0.05833   0.26624   0.44320  -0.24815
N          N       0.38618   0.18493   0.43220  -0.25540
N          N       0.94167   0.73377   0.55681  -0.24814
O          O       0.78267   0.96363   0.44183  -0.55608
O          O       0.68541   0.00028   0.24864  -0.47371
O          O       0.54132   0.84153   0.12706  -0.65496
O          O       0.36621  -0.00143   0.22841  -0.48761
O          O       0.07381   0.41305   0.09672  -0.54556
O          O       0.21266   0.24354   0.17304  -0.60735
O          O       0.76162   0.46567   0.19396  -0.60372
O          O       0.81122   0.63835   0.25535  -0.62540
O          O       0.48044   0.58858   0.15136  -0.57959
O          O       0.34952   0.46051   0.11252  -0.59715
O          O       0.21733   0.03637   0.55817  -0.55634
O          O       0.31460  -0.00028   0.75136  -0.47385
O          O       0.45868   0.15848   0.87294  -0.65501
O          O       0.63379   0.00143   0.77159  -0.48766
O          O       0.92619   0.58696   0.90328  -0.54567
O          O       0.78734   0.75646   0.82696  -0.60748
O          O       0.23838   0.53433   0.80604  -0.60354
O          O       0.18879   0.36165   0.74465  -0.62553
O          O       0.51956   0.41142   0.84864  -0.57969
O          O       0.65049   0.53950   0.88750  -0.59699

