data_crystal

_audit_creation_method 'AiiDA-DDEC plugin'

_cell_length_a         6.31206
_cell_length_b         8.46013
_cell_length_c        10.19043

_cell_angle_alpha     90.00000
_cell_angle_beta     90.00000
_cell_angle_gamma     86.79095

_symmetry_space_group_name_Hall 'P 1'
_symmetry_space_group_name_H-M  'P 1'

loop_
_symmetry_equiv_pos_as_xyz
 'x,y,z'

loop_
_atom_site_label
_atom_site_type_symbol
_atom_site_fract_x
_atom_site_fract_y
_atom_site_fract_z
_atom_site_charge
Zn         Zn      0.64916   0.35309   0.50000   0.82277
Zn         Zn      0.35083   0.64691   0.50000   0.82271
Zn         Zn     -0.00000   0.00001  -0.00000   0.72980
Zn         Zn      0.49999  -0.00001   0.00001   0.64997
H          H       0.23165   0.21976   0.76290   0.29812
H          H       0.13786   0.31161   0.62385   0.30594
H          H       0.76834   0.78024   0.76291   0.29814
H          H       0.86211   0.68838   0.62387   0.30589
H          H       0.76835   0.78024   0.23709   0.29810
H          H       0.86211   0.68838   0.37613   0.30601
H          H       0.23164   0.21976   0.23711   0.29802
H          H       0.13785   0.31160   0.37615   0.30597
C          C       0.90381   0.22063   0.73858   0.51580
C          C       0.09616   0.77936   0.73859   0.51591
C          C       0.09617   0.77936   0.26142   0.51604
C          C       0.90381   0.22063   0.26142   0.51586
N          N       0.84802   0.14263   0.84767  -0.28753
N          N       0.55481   0.21725   0.74445  -0.05777
N          N       0.63494   0.14347   0.84667  -0.01614
N          N       0.72175   0.26867   0.67293  -0.36385
N          N       0.10442   0.24031   0.70062  -0.65330
N          N       0.15196   0.85737   0.84767  -0.28760
N          N       0.44517   0.78273   0.74445  -0.05758
N          N       0.36503   0.85653   0.84667  -0.01619
N          N       0.27823   0.73131   0.67294  -0.36402
N          N       0.89555   0.75969   0.70062  -0.65326
N          N       0.15196   0.85737   0.15233  -0.28778
N          N       0.44517   0.78274   0.25555  -0.05747
N          N       0.36503   0.85653   0.15333  -0.01628
N          N       0.27823   0.73131   0.32706  -0.36395
N          N       0.89556   0.75969   0.29938  -0.65338
N          N       0.84802   0.14263   0.15233  -0.28770
N          N       0.55481   0.21725   0.25556  -0.05778
N          N       0.63494   0.14347   0.15333  -0.01611
N          N       0.72175   0.26867   0.32707  -0.36374
N          N       0.10441   0.24031   0.29938  -0.65326
F          F       0.66898   0.59077   0.50000  -0.49321
F          F       0.33102   0.40923   0.50000  -0.49322
F          F       0.75861   0.85413   0.00000  -0.50198
F          F       0.24139   0.14588   0.00000  -0.50192

