data_crystal

_audit_creation_method 'AiiDA-DDEC plugin'

_cell_length_a         4.67615
_cell_length_b        12.08715
_cell_length_c        12.25253

_cell_angle_alpha     90.01109
_cell_angle_beta     89.93372
_cell_angle_gamma     89.88297

_symmetry_space_group_name_Hall 'P 1'
_symmetry_space_group_name_H-M  'P 1'

loop_
_symmetry_equiv_pos_as_xyz
 'x,y,z'

loop_
_atom_site_label
_atom_site_type_symbol
_atom_site_fract_x
_atom_site_fract_y
_atom_site_fract_z
_atom_site_charge
Co         Co      0.83096   0.74054   0.24749   0.82686
Co         Co      0.33040   0.24068   0.74755   0.82639
H          H       0.13280   0.88019   0.53904   0.13498
H          H       0.81841   0.09504   0.01206   0.13151
H          H       0.84233   0.09640   0.48096   0.13224
H          H       0.32831   0.75463   0.39313   0.10158
H          H       0.66624   0.97045   0.16639   0.08136
H          H       0.33383   0.75327   0.10184   0.10219
H          H      -0.00600   0.97108   0.32690   0.08137
H          H       0.52860   0.87773   0.95509   0.13531
H          H       0.63353   0.37972   0.45585   0.13467
H          H       0.32007   0.59610   0.98191   0.13205
H          H       0.34221   0.59626   0.51369   0.13247
H          H       0.82855   0.25442   0.60187   0.10112
H          H       0.16710   0.47125   0.82802   0.08139
H          H       0.83235   0.25330   0.89277   0.10208
H          H       0.49365   0.47108   0.66773   0.08119
H          H       0.02816   0.37793   0.03903   0.13472
C          C       0.19756   0.00093   0.97929   0.00851
C          C       0.31569   0.90460   0.49009  -0.12649
C          C       0.94386   0.02286   0.03414  -0.12667
C          C       0.71671   0.02438   0.45910  -0.12841
C          C       0.34964   0.07878   0.60016   0.54072
C          C       0.43048   0.83313   0.41173   0.06644
C          C       0.46334   0.00293   0.51418   0.00954
C          C       0.84588   0.94964   0.11425   0.06345
C          C       0.23098   0.83167   0.08264   0.06606
C          C       0.81470   0.95068   0.37925   0.06518
C          C       0.34547   0.90254   0.00387  -0.12765
C          C       0.31191   0.07665   0.89349   0.54188
C          C       0.69795   0.50140   0.01488   0.00958
C          C       0.81610   0.40426   0.50477  -0.12656
C          C       0.44473   0.52361   0.96007  -0.12808
C          C       0.21673   0.52419   0.53561  -0.12865
C          C       0.85008   0.57849   0.39473   0.54165
C          C       0.93064   0.33293   0.58318   0.06677
C          C       0.96363   0.50263   0.48061   0.00919
C          C       0.34629   0.45030   0.88016   0.06370
C          C       0.73031   0.33191   0.91180   0.06454
C          C       0.31453   0.45060   0.61547   0.06526
C          C       0.84536   0.40286   0.99030  -0.12607
C          C       0.81268   0.57684   0.10076   0.54126
N          N       0.99351   0.85578   0.13990  -0.26312
N          N       0.66768   0.85672   0.35424  -0.26481
N          N       0.49305   0.35616   0.85469  -0.26284
N          N       0.16749   0.35667   0.64062  -0.26420
O          O       0.15134   0.16158   0.86994  -0.53708
O          O       0.54645   0.05631   0.84889  -0.49009
O          O       0.51184   0.16263   0.62486  -0.53464
O          O       0.11406   0.05942   0.64421  -0.48945
O          O       0.65187   0.66151   0.12525  -0.53701
O          O       0.04774   0.55632   0.14463  -0.48977
O          O       0.01198   0.66251   0.37017  -0.53607
O          O       0.61481   0.55903   0.35068  -0.48956

