data_crystal

_audit_creation_method 'AiiDA-DDEC plugin'

_cell_length_a         7.76048
_cell_length_b         9.23530
_cell_length_c         8.05416

_cell_angle_alpha     81.69426
_cell_angle_beta     82.77386
_cell_angle_gamma     78.86282

_symmetry_space_group_name_Hall 'P 1'
_symmetry_space_group_name_H-M  'P 1'

loop_
_symmetry_equiv_pos_as_xyz
 'x,y,z'

loop_
_atom_site_label
_atom_site_type_symbol
_atom_site_fract_x
_atom_site_fract_y
_atom_site_fract_z
_atom_site_charge
Zn         Zn      0.56283   0.37482   0.35511   1.03424
Zn         Zn      0.89574   0.32475   0.01268   1.04401
Zn         Zn      0.44453   0.62515   0.64486   1.03438
Zn         Zn      0.11163   0.67523   0.98727   1.04399
Zn         Zn      0.50369   0.49999  -0.00000   1.01402
P          P       0.18620   0.35535   0.19244   1.23927
P          P       0.82115   0.64458   0.80748   1.23982
H          H       0.33272   0.07531   0.40939   0.13082
H          H       0.88549   0.43252   0.42154   0.11042
H          H       0.92208   0.06509   0.82049   0.13575
H          H       0.74828   0.55479   0.15557   0.41552
H          H       0.67450   0.92456   0.59045   0.13081
H          H       0.12184   0.56743   0.57838   0.11062
H          H       0.08513   0.93480   0.17936   0.13560
H          H       0.25911   0.44516   0.84442   0.41547
C          C       0.20793   0.12815   0.47028  -0.05388
C          C       0.11600   0.26356   0.39655  -0.18951
C          C       0.95416   0.32612   0.47686  -0.07350
C          C       0.13912   0.05960   0.62462  -0.03311
C          C       0.88184   0.25541   0.62763  -0.04435
C          C       0.70750   0.32700   0.70378   0.63054
C          C       0.97605   0.12312   0.70384  -0.09296
C          C       0.22853   0.91005   0.69966   0.60881
C          C       0.79931   0.87173   0.52958  -0.05427
C          C       0.89127   0.73635   0.60334  -0.18947
C          C       0.05313   0.67381   0.52304  -0.07343
C          C       0.86812   0.94029   0.37525  -0.03295
C          C       0.12543   0.74451   0.37225  -0.04434
C          C       0.29980   0.67295   0.29613   0.62967
C          C       0.03119   0.87677   0.29603  -0.09277
C          C       0.77875   0.08988   0.30024   0.60870
O          O       0.70506   0.46278   0.15103  -0.87779
O          O       0.38867   0.35360   0.18788  -0.75830
O          O       0.59829   0.40760   0.60209  -0.59795
O          O       0.67190   0.31332   0.86262  -0.52558
O          O       0.35285   0.84094   0.60371  -0.56220
O          O       0.17074   0.86331   0.84784  -0.55277
O          O       0.15048   0.26907   0.05351  -0.71516
O          O       0.07456   0.51319   0.18129  -0.77933
O          O       0.30232   0.53717   0.84896  -0.87779
O          O       0.61867   0.64634   0.81211  -0.75858
O          O       0.40903   0.59240   0.39782  -0.59735
O          O       0.33541   0.68665   0.13729  -0.52531
O          O       0.65442   0.15897   0.39619  -0.56219
O          O       0.83662   0.13665   0.15209  -0.55269
O          O       0.85689   0.73088   0.94638  -0.71559
O          O       0.93277   0.48674   0.81861  -0.77935

