data_crystal

_audit_creation_method 'AiiDA-DDEC plugin'

_cell_length_a         8.07774
_cell_length_b         8.72204
_cell_length_c         8.62493

_cell_angle_alpha     54.30696
_cell_angle_beta     83.77243
_cell_angle_gamma     85.15378

_symmetry_space_group_name_Hall 'P 1'
_symmetry_space_group_name_H-M  'P 1'

loop_
_symmetry_equiv_pos_as_xyz
 'x,y,z'

loop_
_atom_site_label
_atom_site_type_symbol
_atom_site_fract_x
_atom_site_fract_y
_atom_site_fract_z
_atom_site_charge
Mn         Mn      0.45767   0.58559   0.06775   0.97239
Mn         Mn      0.94781   0.04699   0.61013   1.03000
H          H       0.13643   0.34437   0.88672   0.12972
H          H       0.95872   0.59507   0.87771   0.10163
H          H       0.11257   0.99570   0.30951   0.10125
H          H       0.30037   0.76132   0.29387   0.12172
H          H       0.37913   0.18646   0.88546   0.30848
H          H       0.63193   0.87572   0.33478   0.13970
H          H       0.46750   0.86648   0.60160   0.10038
H          H       0.63135   0.31718   0.00273   0.10104
H          H       0.81231   0.30927   0.75571   0.12177
H          H       0.82047   0.85238   0.12396   0.29772
C          C       0.68119   0.29084   0.34819   0.56781
C          C       0.55732   0.28264   0.49298  -0.00865
C          C       0.64023   0.00324   0.84598   0.53414
C          C       0.54004   0.16100   0.69412   0.01704
C          C       0.13687   0.48659   0.75514  -0.15139
C          C       0.03729   0.62652   0.75185   0.09290
C          C       0.12170   0.84956   0.43314   0.09583
C          C       0.22467   0.71957   0.42430  -0.16722
C          C       0.23573   0.53335   0.58959   0.05853
C          C       0.35580   0.40206   0.58574   0.29316
C          C       0.17600   0.34285   0.28713   0.56885
C          C       0.06244   0.48820   0.28199  -0.00796
C          C       0.13665   0.83072   0.96735   0.56757
C          C       0.03653   0.68217   0.13847  -0.00407
C          C       0.63689   0.74969   0.48079  -0.15431
C          C       0.54415   0.74520   0.62909   0.10247
C          C       0.63543   0.43832   0.85380   0.08496
C          C       0.73415   0.43279   0.71624  -0.16975
C          C       0.73646   0.59106   0.52460   0.05953
C          C       0.85255   0.58364   0.38822   0.28394
N          N       0.44272   0.43064   0.42966  -0.37656
N          N       0.41129   0.23897   0.74582  -0.24028
N          N       0.03176   0.80684   0.59498  -0.25396
N          N       0.94873   0.43117   0.43496  -0.37169
N          N       0.89807   0.73528   0.20744  -0.24736
N          N       0.54412   0.59330   0.81343  -0.25564
O          O       0.67317   0.43880   0.17596  -0.54185
O          O       0.79087   0.16053   0.39248  -0.55651
O          O       0.74429   0.91438   0.79921  -0.57553
O          O       0.61818   0.96864   0.01130  -0.55687
O          O       0.15949   0.17285   0.43279  -0.53268
O          O       0.28393   0.38925   0.14720  -0.57644
O          O       0.29466   0.80485   0.95312  -0.55358
O          O       0.06327   0.98590   0.84660  -0.55024

