data_crystal

_audit_creation_method 'AiiDA-DDEC plugin'

_cell_length_a         9.32232
_cell_length_b         7.51525
_cell_length_c        10.24036

_cell_angle_alpha     94.60305
_cell_angle_beta     89.45266
_cell_angle_gamma     71.67217

_symmetry_space_group_name_Hall 'P 1'
_symmetry_space_group_name_H-M  'P 1'

loop_
_symmetry_equiv_pos_as_xyz
 'x,y,z'

loop_
_atom_site_label
_atom_site_type_symbol
_atom_site_fract_x
_atom_site_fract_y
_atom_site_fract_z
_atom_site_charge
K          K       0.48273   0.52575   0.00805   0.88604
K          K       0.95765   0.69965   0.50046   0.92652
Cd         Cd      0.50881   0.97487   0.78701   0.66233
Cd         Cd      0.48282   0.03394   0.23799   1.15897
H          H       0.71812   0.19598   0.82677   0.38539
H          H       0.68341   0.10783   0.95918   0.39405
H          H       0.27836   0.80692   0.22077   0.39326
H          H       0.24117   0.97223   0.12268   0.39426
Ru         Ru      0.61179   0.42456   0.56997   0.97763
Ru         Ru      0.93180   0.37594   0.10543   1.39783
Ru         Ru      0.41580   0.50614   0.42569   0.98047
Ru         Ru      0.07036   0.57704   0.88259   1.36713
C          C       0.41607   0.17749   0.55263   0.76482
C          C       0.69941   0.30878   0.27389   0.78827
C          C       0.25971   0.23469   0.00732   0.79346
C          C       0.88006   0.38996   0.77026   0.84440
C          C       0.59633   0.76250   0.43854   0.77599
C          C       0.29663   0.65884   0.69455   0.81820
C          C       0.76719   0.79089   0.04744   0.81616
C          C       0.13133   0.59602   0.20921   0.82875
O          O       0.76690   0.26297   0.15755  -0.58057
O          O       0.35804   0.06263   0.59387  -0.48709
O          O       0.53199   0.21058   0.61185  -0.57031
O          O       0.36334   0.26754   0.44698  -0.58976
O          O       0.77005   0.31160   0.37781  -0.59335
O          O       0.54924   0.35198   0.27052  -0.61163
O          O       0.78971   0.31453   0.71077  -0.55814
O          O       0.14993   0.18062   0.05572  -0.63549
O          O       0.24333   0.31182   0.89572  -0.63953
O          O       0.91211   0.35312   0.89127  -0.69057
O          O       0.94291   0.49788   0.71570  -0.66638
O          O       0.38223   0.21127   0.06700  -0.61102
O          O       0.63793   0.17907   0.88419  -0.76868
O          O       0.18032   0.72667   0.77664  -0.60971
O          O       0.64201   0.89052   0.39532  -0.59433
O          O       0.47972   0.72663   0.38415  -0.55680
O          O       0.66456   0.66816   0.53414  -0.62640
O          O       0.26309   0.64143   0.56995  -0.58339
O          O       0.43162   0.61544   0.73347  -0.68827
O          O       0.20506   0.66444   0.29452  -0.60971
O          O       0.86818   0.78059   0.95561  -0.64008
O          O       0.75701   0.64228   0.09921  -0.67874
O          O       0.15066   0.61055   0.08583  -0.68700
O          O       0.03583   0.51443   0.24971  -0.67012
O          O       0.67360   0.95316   0.08281  -0.59474
O          O       0.32512   0.87539   0.16083  -0.81210

