data_crystal

_audit_creation_method 'AiiDA-DDEC plugin'

_cell_length_a         6.53009
_cell_length_b        10.23507
_cell_length_c        10.86284

_cell_angle_alpha     47.52917
_cell_angle_beta     78.63698
_cell_angle_gamma     80.08876

_symmetry_space_group_name_Hall 'P 1'
_symmetry_space_group_name_H-M  'P 1'

loop_
_symmetry_equiv_pos_as_xyz
 'x,y,z'

loop_
_atom_site_label
_atom_site_type_symbol
_atom_site_fract_x
_atom_site_fract_y
_atom_site_fract_z
_atom_site_charge
Fe         Fe      0.50313   0.00843   0.99534   1.05122
Fe         Fe      0.00199   0.99561   0.00767   1.01142
H          H       0.35448   0.37582   0.11717   0.13332
H          H       0.25461   0.78471   0.20870   0.46003
H          H       0.12862   0.92593   0.62902   0.11024
H          H       0.09226   0.50546   0.18838   0.10060
H          H       0.73520   0.23807   0.86225   0.43483
H          H       0.31283   0.84879   0.45229   0.12554
H          H       0.64894   0.63698   0.89064   0.11467
H          H       0.86255   0.07808   0.37238   0.11429
H          H       0.89541   0.47474   0.81081   0.12862
H          H       0.67437   0.16033   0.53795   0.13359
C          C       0.21170   0.43496   0.05938  -0.08915
C          C       0.29514   0.95170   0.57400  -0.09932
C          C       0.05082   0.48788   0.11019  -0.08098
C          C       0.39152   0.91128   0.47749  -0.09566
C          C       0.80023   0.58140   0.93716  -0.08192
C          C       0.70041   0.04735   0.42228  -0.10349
C          C       0.94046   0.49232   0.88834  -0.12911
C          C       0.59685   0.09542   0.51657  -0.09905
C          C       0.13326   0.41809   0.95196  -0.03351
C          C       0.21663   0.29375   0.91805   0.58447
C          C       0.39329   0.04359   0.59202  -0.01672
C          C       0.29780   0.08323   0.70961   0.56921
C          C       0.87095   0.58420   0.04317  -0.01713
C          C       0.79181   0.70210   0.07855   0.57709
C          C       0.59716   0.95873   0.40360  -0.03045
C          C       0.68627   0.92771   0.28156   0.58363
O          O       0.39332   0.21624   0.96454  -0.49843
O          O       0.12535   0.01870   0.80225  -0.47526
O          O       0.90347   0.70605   0.16160  -0.50222
O          O       0.54996   0.88072   0.24684  -0.50994
O          O       0.62423   0.80162   0.01405  -0.50158
O          O       0.87676   0.94931   0.21916  -0.49347
O          O       0.09590   0.26684   0.85981  -0.50961
O          O       0.41785   0.16358   0.71841  -0.50472
O          O       0.25479   0.89428   0.09701  -0.68716
O          O       0.75339   0.11351   0.90684  -0.67392

