data_crystal

_audit_creation_method 'AiiDA-DDEC plugin'

_cell_length_a         6.70745
_cell_length_b         7.36762
_cell_length_c        10.46759

_cell_angle_alpha     108.50066
_cell_angle_beta     101.57646
_cell_angle_gamma     92.16102

_symmetry_space_group_name_Hall 'P 1'
_symmetry_space_group_name_H-M  'P 1'

loop_
_symmetry_equiv_pos_as_xyz
 'x,y,z'

loop_
_atom_site_label
_atom_site_type_symbol
_atom_site_fract_x
_atom_site_fract_y
_atom_site_fract_z
_atom_site_charge
Ga         Ga      0.01442   0.49364   0.98266   1.46219
Ga         Ga      0.51384   0.49603   0.98837   1.44414
H          H       0.16396   0.78889   0.41600   0.10844
H          H       0.35603   0.38038   0.56071   0.11207
H          H       0.32590   0.97886   0.66858   0.11785
H          H       0.19042   0.31041   0.30744   0.12310
H          H       0.86041   0.18212   0.55914   0.11457
H          H       0.70095   0.62642   0.41333   0.10576
H          H       0.69670   0.99281   0.30482   0.11920
H          H       0.86074   0.69543   0.66347   0.12513
H          H       0.23587   0.24142   0.91859   0.42089
H          H       0.79115   0.74724   0.05617   0.41684
C          C       0.31440   0.87644   0.44683  -0.08820
C          C       0.21282   0.43318   0.52752  -0.09518
C          C       0.40554   0.98097   0.58862  -0.09192
C          C       0.11751   0.38927   0.38619  -0.09359
C          C       0.70949   0.09452   0.52676  -0.09187
C          C       0.84250   0.57165   0.44646  -0.09786
C          C       0.61846   0.99204   0.38588  -0.09036
C          C       0.93580   0.61382   0.58651  -0.09192
C          C       0.42069   0.88245   0.34540  -0.04071
C          C       0.33544   0.76678   0.19578   0.62117
C          C       0.12172   0.54640   0.62647  -0.03267
C          C       0.20662   0.57234   0.77481   0.60400
C          C       0.59907   0.09293   0.62790  -0.03606
C          C       0.68411   0.21812   0.77673   0.61540
C          C       0.92770   0.45412   0.34468  -0.03551
C          C       0.82577   0.41596   0.19371   0.60167
O          O       0.14873   0.69460   0.16245  -0.55036
O          O       0.38881   0.53518   0.80753  -0.54391
O          O       0.56190   0.24372   0.85961  -0.57420
O          O       0.92684   0.34976   0.10238  -0.58093
O          O       0.86995   0.29410   0.80757  -0.54774
O          O       0.64012   0.45903   0.16596  -0.55924
O          O       0.45528   0.74546   0.11220  -0.58047
O          O       0.08393   0.62330   0.85487  -0.58127
O          O       0.25526   0.36366   0.98750  -0.85572
O          O       0.76914   0.62419   0.98609  -0.85273

