data_crystal

_audit_creation_method 'AiiDA-DDEC plugin'

_cell_length_a         6.96526
_cell_length_b        15.11029
_cell_length_c        15.17897

_cell_angle_alpha     117.88314
_cell_angle_beta     98.74227
_cell_angle_gamma     98.86219

_symmetry_space_group_name_Hall 'P 1'
_symmetry_space_group_name_H-M  'P 1'

loop_
_symmetry_equiv_pos_as_xyz
 'x,y,z'

loop_
_atom_site_label
_atom_site_type_symbol
_atom_site_fract_x
_atom_site_fract_y
_atom_site_fract_z
_atom_site_charge
Co         Co      0.70952   0.32189   0.73885   1.00715
Co         Co      0.97126   0.26215   0.58258   1.00830
Co         Co      0.38948   0.41970   0.68033   1.00726
Co         Co      0.29047   0.67812   0.26115   1.00720
Co         Co      0.02873   0.73785   0.41741   1.00816
Co         Co      0.61051   0.58030   0.31967   1.00730
H          H       0.13275   0.97832   0.45264   0.14527
H          H       0.67991   0.54743   0.52561   0.14530
H          H       0.15406   0.47355   0.02120   0.14513
H          H       0.86724   0.02169   0.54737   0.14507
H          H       0.32007   0.45256   0.47437   0.14518
H          H       0.84594   0.52645   0.97879   0.14503
C          C       0.63290   0.10061   0.56420   0.29303
C          C       0.42095   0.08798   0.53683  -0.14355
C          C       0.29395   0.98805   0.47404  -0.19178
C          C       0.32807   0.17698   0.56682   0.62124
C          C       0.06926   0.43652   0.53672   0.29707
C          C       0.88452   0.46391   0.55142  -0.14799
C          C       0.81977   0.52596   0.51395  -0.19174
C          C       0.76209   0.43473   0.61068   0.62390
C          C       0.53283   0.46477   0.90004   0.29510
C          C       0.33330   0.44960   0.91244  -0.14508
C          C       0.30573   0.48557   0.01172  -0.19305
C          C       0.15165   0.39109   0.82379   0.62351
C          C       0.36709   0.89940   0.43581   0.29288
C          C       0.57904   0.91202   0.46318  -0.14344
C          C       0.70604   0.01195   0.52597  -0.19191
C          C       0.67192   0.82303   0.43319   0.62133
C          C       0.93072   0.56347   0.46327   0.29692
C          C       0.11547   0.53608   0.44857  -0.14796
C          C       0.18021   0.47403   0.48604  -0.19198
C          C       0.23790   0.56527   0.38931   0.62400
C          C       0.46717   0.53523   0.09996   0.29504
C          C       0.66669   0.55041   0.08756  -0.14510
C          C       0.69426   0.51443   0.98828  -0.19314
C          C       0.84834   0.60892   0.17621   0.62362
N          N       0.60238   0.24353   0.80332  -0.04866
N          N       0.52121   0.19090   0.82700   0.03950
N          N       0.79940   0.19638   0.43984  -0.05150
N          N       0.69263   0.17074   0.36363   0.04189
N          N       0.36119   0.56301   0.75822  -0.05136
N          N       0.33278   0.63988   0.81020   0.04094
N          N       0.39763   0.75650   0.19670  -0.04866
N          N       0.47884   0.80917   0.17308   0.03949
N          N       0.20058   0.80361   0.56015  -0.05108
N          N       0.30734   0.82925   0.63636   0.04142
N          N       0.63879   0.43699   0.24178  -0.05140
N          N       0.66721   0.36012   0.18980   0.04097
O          O       0.76665   0.19354   0.62577  -0.58981
O          O       0.44366   0.26980   0.62040  -0.59594
O          O       0.13839   0.15781   0.53549  -0.53636
O          O       0.14180   0.37545   0.56821  -0.59054
O          O       0.82435   0.38144   0.64970  -0.59617
O          O       0.60403   0.46639   0.62326  -0.53719
O          O       0.57431   0.43443   0.80776  -0.58965
O          O       0.17500   0.35237   0.73150  -0.59702
O          O       0.98081   0.37868   0.84262  -0.53664
O          O       0.23334   0.80646   0.37423  -0.58957
O          O       0.55633   0.73021   0.37961  -0.59603
O          O       0.86160   0.84220   0.46451  -0.53657
O          O       0.85819   0.62454   0.43178  -0.59047
O          O       0.17564   0.61856   0.35029  -0.59603
O          O       0.39596   0.53361   0.37674  -0.53741
O          O       0.42568   0.56557   0.19223  -0.58965
O          O       0.82498   0.64763   0.26849  -0.59702
O          O       0.01918   0.62132   0.15738  -0.53675

