data_crystal

_audit_creation_method 'AiiDA-DDEC plugin'

_cell_length_a         9.44932
_cell_length_b        15.01969
_cell_length_c        15.37689

_cell_angle_alpha     90.32053
_cell_angle_beta     89.51016
_cell_angle_gamma     106.32588

_symmetry_space_group_name_Hall 'P 1'
_symmetry_space_group_name_H-M  'P 1'

loop_
_symmetry_equiv_pos_as_xyz
 'x,y,z'

loop_
_atom_site_label
_atom_site_type_symbol
_atom_site_fract_x
_atom_site_fract_y
_atom_site_fract_z
_atom_site_charge
Y          Y       0.83073   0.53636   0.00781   1.80963
Y          Y       0.66908   0.96369   0.50576   1.80823
Y          Y       0.16924   0.46364   0.99219   1.80967
Y          Y       0.33091   0.03630   0.49424   1.80823
H          H       0.33141   0.65075   0.84193   0.12692
H          H       0.47508   0.75540   0.72630   0.12566
H          H       0.15016   0.90629   0.72305   0.12907
H          H       0.00601   0.80212   0.83963   0.12912
H          H       0.17059   0.85041   0.34258   0.12780
H          H       0.02550   0.74507   0.22828   0.12565
H          H       0.34730   0.59183   0.22182   0.12779
H          H       0.49281   0.69663   0.33719   0.12844
H          H       0.66855   0.34924   0.15809   0.12703
H          H       0.52490   0.24458   0.27371   0.12572
H          H       0.84983   0.09370   0.27696   0.12902
H          H       0.99397   0.19788   0.16037   0.12905
H          H       0.82942   0.14960   0.65742   0.12769
H          H       0.97450   0.25495   0.77171   0.12549
H          H       0.65268   0.40818   0.77816   0.12794
H          H       0.50718   0.30336   0.66280   0.12868
C          C       0.15922   0.72018   0.84684  -0.03888
C          C       0.29218   0.70677   0.81602  -0.08845
C          C       0.37259   0.76514   0.75160  -0.08832
C          C       0.31999   0.83621   0.71740  -0.03997
C          C       0.18844   0.85044   0.74984  -0.09519
C          C       0.10883   0.79302   0.81433  -0.09000
C          C       0.06412   0.65707   0.91111   0.61492
C          C       0.39729   0.89573   0.64430   0.63823
C          C       0.50801   0.53033   0.95865   0.47336
C          C       0.34117   0.77973   0.34594  -0.03661
C          C       0.20870   0.79361   0.31640  -0.09048
C          C       0.12754   0.73491   0.25267  -0.08769
C          C       0.17894   0.66303   0.21788  -0.03902
C          C       0.30997   0.64831   0.24907  -0.09488
C          C       0.39034   0.70608   0.31287  -0.09081
C          C       0.43690   0.84315   0.40942   0.61338
C          C       0.10108   0.60336   0.14519   0.63868
C          C       0.99404   0.97159   0.45733   0.47338
C          C       0.84075   0.27982   0.15317  -0.03886
C          C       0.70779   0.29321   0.18399  -0.08816
C          C       0.62739   0.23485   0.24841  -0.08839
C          C       0.67999   0.16378   0.28260  -0.03999
C          C       0.81154   0.14956   0.25016  -0.09521
C          C       0.89115   0.20697   0.18568  -0.09013
C          C       0.93584   0.34293   0.08890   0.61467
C          C       0.60270   0.10425   0.35571   0.63839
C          C       0.49196   0.46968   0.04135   0.47313
C          C       0.65883   0.22027   0.65405  -0.03666
C          C       0.79131   0.20639   0.68360  -0.09055
C          C       0.87246   0.26510   0.74732  -0.08756
C          C       0.82105   0.33698   0.78211  -0.03917
C          C       0.69002   0.35169   0.75092  -0.09488
C          C       0.60965   0.29392   0.68712  -0.09086
C          C       0.56310   0.15684   0.59058   0.61343
C          C       0.89890   0.39665   0.85480   0.63916
C          C       0.00596   0.02841   0.54267   0.47323
O          O       0.94433   0.67232   0.93611  -0.56686
O          O       0.09883   0.58499   0.93947  -0.69444
O          O       0.32861   0.94941   0.61057  -0.63933
O          O       0.52334   0.89016   0.61823  -0.61398
O          O       0.38847   0.53080   0.92105  -0.56184
O          O       0.63730   0.57398   0.93575  -0.52889
O          O       0.55734   0.82828   0.43234  -0.56796
O          O       0.40174   0.91494   0.43930  -0.69315
O          O       0.16948   0.54957   0.11004  -0.63997
O          O       0.97494   0.60906   0.12083  -0.61391
O          O       0.11553   0.97240   0.42023  -0.56125
O          O       0.86597   0.92948   0.43202  -0.52833
O          O       0.05563   0.32768   0.06390  -0.56694
O          O       0.90111   0.41500   0.06053  -0.69417
O          O       0.67139   0.05057   0.38944  -0.63959
O          O       0.47665   0.10983   0.38178  -0.61388
O          O       0.61150   0.46921   0.07895  -0.56185
O          O       0.36267   0.42602   0.06424  -0.52887
O          O       0.44265   0.17171   0.56766  -0.56771
O          O       0.59825   0.08505   0.56070  -0.69337
O          O       0.83049   0.45043   0.88995  -0.63999
O          O       0.02504   0.39095   0.87917  -0.61437
O          O       0.88447   0.02759   0.57977  -0.56107
O          O       0.13403   0.07052   0.56798  -0.52836

