data_crystal

_audit_creation_method 'AiiDA-DDEC plugin'

_cell_length_a        10.12756
_cell_length_b         7.85262
_cell_length_c         9.53470

_cell_angle_alpha     70.46839
_cell_angle_beta     62.15807
_cell_angle_gamma     79.85735

_symmetry_space_group_name_Hall 'P 1'
_symmetry_space_group_name_H-M  'P 1'

loop_
_symmetry_equiv_pos_as_xyz
 'x,y,z'

loop_
_atom_site_label
_atom_site_type_symbol
_atom_site_fract_x
_atom_site_fract_y
_atom_site_fract_z
_atom_site_charge
Cd         Cd      0.98500   0.26172   0.00701   0.97963
Cd         Cd      0.01500   0.73827   0.99300   0.97964
H          H       0.52697   0.14317   0.33294   0.11380
H          H       0.66909   0.51395   0.28073   0.11746
H          H       0.20555   0.54203   0.21561   0.11226
H          H       0.62088   0.01723   0.54964   0.12471
H          H       0.73113   0.80777   0.91793   0.11663
H          H       0.47303   0.85682   0.66707   0.11375
H          H       0.37912   0.98277   0.45037   0.12466
H          H       0.79446   0.45797   0.78440   0.11225
H          H       0.50065   0.27667   0.07109   0.11733
H          H       0.78355   0.31321   0.59212   0.11531
H          H       0.21646   0.68678   0.40789   0.11534
H          H       0.49935   0.72332   0.92892   0.11739
H          H       0.85598   0.93478   0.30856   0.13853
H          H       0.14402   0.06522   0.69145   0.13848
H          H       0.33091   0.48604   0.71928   0.11747
H          H       0.26887   0.19222   0.08209   0.11663
C          C       0.37004   0.10852   0.04660  -0.09355
C          C       0.21912   0.16230   0.67259   0.08119
C          C       0.62996   0.89147   0.95342  -0.09326
C          C       0.45339   0.06241   0.45747  -0.12144
C          C       0.11633   0.52405   0.34054  -0.10901
C          C       0.00591   0.58118   0.60760  -0.03128
C          C       0.87799   0.39433   0.55328  -0.08487
C          C       0.99410   0.41881   0.39241  -0.03143
C          C       0.78088   0.83769   0.32741   0.08115
C          C       0.31821   0.37460   0.68399   0.13478
C          C       0.01814   0.65613   0.72603   0.55604
C          C       0.49916   0.15553   0.04059  -0.10194
C          C       0.88367   0.47594   0.65947  -0.10911
C          C       0.98186   0.34386   0.27398   0.55619
C          C       0.62968   0.04726   0.99472  -0.03067
C          C       0.23279   0.90170   0.01033   0.55880
C          C       0.12201   0.60566   0.44673  -0.08504
C          C       0.50084   0.84446   0.95943  -0.10216
C          C       0.68179   0.62539   0.31602   0.13475
C          C       0.54661   0.93758   0.54254  -0.12112
C          C       0.76721   0.09830   0.98968   0.55880
C          C       0.37032   0.95273   0.00530  -0.03043
N          N       0.57297   0.68245   0.43891  -0.25601
N          N       0.81164   0.71794   0.24321  -0.33981
N          N       0.42703   0.31754   0.56110  -0.25597
N          N       0.36160   0.18296   0.55567   0.18078
N          N       0.63841   0.81703   0.44434   0.18077
N          N       0.18836   0.28205   0.75680  -0.33985
O          O       0.07223   0.40918   0.11687  -0.59676
O          O       0.11409   0.77094   0.67761  -0.53592
O          O       0.89390   0.03074   0.91085  -0.59625
O          O       0.92777   0.59082   0.88314  -0.59668
O          O       0.75078   0.21439   0.06562  -0.54983
O          O       0.10610   0.96926   0.08915  -0.59633
O          O       0.88592   0.22905   0.32240  -0.53598
O          O       0.24922   0.78560   0.93439  -0.54981

