data_crystal

_audit_creation_method 'AiiDA-DDEC plugin'

_cell_length_a         9.87743
_cell_length_b        10.91382
_cell_length_c        10.91296

_cell_angle_alpha     65.65699
_cell_angle_beta     61.86908
_cell_angle_gamma     61.86181

_symmetry_space_group_name_Hall 'P 1'
_symmetry_space_group_name_H-M  'P 1'

loop_
_symmetry_equiv_pos_as_xyz
 'x,y,z'

loop_
_atom_site_label
_atom_site_type_symbol
_atom_site_fract_x
_atom_site_fract_y
_atom_site_fract_z
_atom_site_charge
Ni         Ni      0.12750   0.86981   0.86981   1.12712
Ni         Ni      0.78878   0.05130   0.05120   1.14078
Ni         Ni      0.10591   0.05237   0.05236   1.13079
H          H       0.52848   0.48792   0.02363   0.14208
H          H       0.96782   0.02396   0.48206   0.14002
H          H       0.52839   0.02373   0.48787   0.14208
H          H       0.96792   0.48213   0.02383   0.13996
H          H       0.53490   0.85784   0.07068   0.12816
H          H       0.53487   0.07079   0.85778   0.12807
C          C       0.51319   0.68239   0.04580  -0.03296
C          C       0.59190   0.54102   0.03238  -0.08386
C          C       0.34615   0.76891   0.03628   0.59694
C          C       0.76102   0.04611   0.67887  -0.02786
C          C       0.84000   0.03275   0.53738  -0.07996
C          C       0.84780   0.03840   0.76506   0.60199
C          C       0.51314   0.04588   0.68234  -0.03292
C          C       0.59182   0.03248   0.54097  -0.08389
C          C       0.34615   0.03628   0.76890   0.59729
C          C       0.76108   0.67894   0.04598  -0.02817
C          C       0.84009   0.53745   0.03262  -0.07982
C          C       0.84782   0.76514   0.03829   0.60166
C          C       0.59632   0.74905   0.05753  -0.08886
C          C       0.75333   0.46705   0.03090  -0.03649
C          C       0.83027   0.31287   0.02658   0.59393
C          C       0.59628   0.05763   0.74900  -0.08914
C          C       0.75323   0.03102   0.46698  -0.03638
C          C       0.83016   0.02668   0.31281   0.59368
O          O       0.29994   0.73538   0.96822  -0.52080
O          O       0.26823   0.87486   0.09733  -0.50300
O          O       0.74327   0.25745   0.02611  -0.52726
O          O       0.00080   0.96704   0.73184  -0.54390
O          O       0.75599   0.09973   0.86882  -0.55353
O          O       0.97949   0.02481   0.25116  -0.49978
O          O       0.29994   0.96823   0.73537  -0.52076
O          O       0.26828   0.09725   0.87491  -0.50321
O          O       0.74321   0.02613   0.25739  -0.52714
O          O       0.00086   0.73183   0.96708  -0.54384
O          O       0.75595   0.86900   0.09948  -0.55337
O          O       0.97961   0.25122   0.02467  -0.49982
O          O       0.00892   0.98919   0.98915  -0.80781

