data_crystal

_audit_creation_method 'AiiDA-DDEC plugin'

_cell_length_a         7.01899
_cell_length_b        15.12311
_cell_length_c        15.02619

_cell_angle_alpha     117.57488
_cell_angle_beta     99.08127
_cell_angle_gamma     99.02125

_symmetry_space_group_name_Hall 'P 1'
_symmetry_space_group_name_H-M  'P 1'

loop_
_symmetry_equiv_pos_as_xyz
 'x,y,z'

loop_
_atom_site_label
_atom_site_type_symbol
_atom_site_fract_x
_atom_site_fract_y
_atom_site_fract_z
_atom_site_charge
Fe         Fe      0.10975   0.57587   0.31697   1.15131
Fe         Fe      0.88621   0.41283   0.67632   1.03325
Fe         Fe      0.45724   0.25692   0.57355   1.14083
Fe         Fe      0.53286   0.74124   0.42687   1.14254
Fe         Fe      0.78944   0.67838   0.26390   1.12902
Fe         Fe      0.20189   0.31460   0.74148   1.14089
H          H       0.36150   0.02117   0.54984   0.15229
H          H       0.65684   0.46905   0.01975   0.15107
H          H       0.80128   0.44388   0.46551   0.15188
H          H       0.34462   0.53073   0.97978   0.15037
H          H       0.63079   0.97657   0.44914   0.15154
H          H       0.18567   0.55316   0.53469   0.15214
C          C       0.60641   0.53419   0.44747  -0.12776
C          C       0.96816   0.53528   0.09963   0.30951
C          C       0.16647   0.55419   0.08892  -0.12913
C          C       0.19407   0.51719   0.98899  -0.17283
C          C       0.20124   0.01102   0.52713  -0.17692
C          C       0.42886   0.56481   0.46702   0.30533
C          C       0.73076   0.56591   0.39013   0.64362
C          C       0.55831   0.43174   0.53318   0.30409
C          C       0.82487   0.17487   0.56413   0.64057
C          C       0.32053   0.52885   0.51963  -0.17497
C          C       0.16659   0.82283   0.43411   0.64222
C          C       0.38193   0.46368   0.55399  -0.13124
C          C       0.65359   0.38723   0.82102   0.63826
C          C       0.12754   0.09851   0.56330   0.30031
C          C       0.91815   0.08651   0.53416  -0.12636
C          C       0.80726   0.48296   0.01056  -0.16973
C          C       0.79106   0.98666   0.47167  -0.17508
C          C       0.83483   0.44620   0.91063  -0.12859
C          C       0.26104   0.43362   0.61340   0.63954
C          C       0.66676   0.46838   0.48094  -0.16716
C          C       0.86463   0.89900   0.43690   0.30745
C          C       0.34731   0.61445   0.17882   0.64615
C          C       0.07423   0.91116   0.46436  -0.12836
C          C       0.03293   0.46295   0.89969   0.31311
O          O       0.48494   0.38073   0.84094  -0.51877
O          O       0.89960   0.54666   0.39019  -0.51326
O          O       0.89914   0.75890   0.20947  -0.18570
O          O       0.21710   0.22332   0.44544  -0.13863
O          O       0.35544   0.84269   0.45987  -0.51563
O          O       0.07556   0.41678   0.25781  -0.13718
O          O       0.07191   0.42738   0.80559  -0.56623
O          O       0.05155   0.72944   0.38560  -0.59532
O          O       0.16846   0.25665   0.84536  -0.12257
O          O       0.09613   0.45856   0.61903  -0.49863
O          O       0.80758   0.60002   0.71960  -0.01571
O          O       0.73155   0.80466   0.37783  -0.56869
O          O       0.66688   0.84106   0.58993  -0.11906
O          O       0.21721   0.44747   0.22261  -0.14358
O          O       0.32499   0.15711   0.41140  -0.12525
O          O       0.92533   0.56383   0.19259  -0.57229
O          O       0.32818   0.38575   0.65814  -0.59131
O          O       0.32429   0.65893   0.27193  -0.59286
O          O       0.67399   0.34303   0.72713  -0.58007
O          O       0.89925   0.71913   0.11309  -0.08199
O          O       0.00155   0.21530   0.77109  -0.13848
O          O       0.26177   0.19233   0.62642  -0.57936
O          O       0.51756   0.62153   0.15982  -0.51096
O          O       0.94073   0.26775   0.60900  -0.58637
O          O       0.86606   0.54917   0.76135  -0.13211
O          O       0.76646   0.77087   0.55597  -0.13876
O          O       0.65831   0.60957   0.34088  -0.60130
O          O       0.62768   0.36639   0.55999  -0.56717
O          O       0.63607   0.15500   0.54281  -0.51726
O          O       0.35869   0.62859   0.43731  -0.57467

