data_crystal

_audit_creation_method 'AiiDA-DDEC plugin'

_cell_length_a         5.24490
_cell_length_b         9.63985
_cell_length_c        11.18997

_cell_angle_alpha     113.56711
_cell_angle_beta     111.88086
_cell_angle_gamma     98.33010

_symmetry_space_group_name_Hall 'P 1'
_symmetry_space_group_name_H-M  'P 1'

loop_
_symmetry_equiv_pos_as_xyz
 'x,y,z'

loop_
_atom_site_label
_atom_site_type_symbol
_atom_site_fract_x
_atom_site_fract_y
_atom_site_fract_z
_atom_site_charge
Co         Co      0.99034   0.99668   0.49454   0.94213
Co         Co      0.49321   0.99344   0.50200   1.02349
H          H       0.70456   0.79617   0.56094   0.40254
H          H       0.68941   0.71267   0.38730   0.40094
H          H       0.63533   0.21975   0.81702   0.10356
H          H       0.37815   0.61052   0.95160   0.11055
H          H       0.19501   0.15902   0.07035   0.11626
H          H       0.84358   0.94386   0.18767   0.10759
H          H       0.31160   0.20050   0.44083   0.39919
H          H       0.29800   0.27765   0.60717   0.40039
H          H       0.34366   0.77319   0.17864   0.10556
H          H       0.59815   0.38190   0.04041   0.10946
H          H       0.82207   0.84708   0.93846   0.11602
H          H       0.16707   0.05841   0.81982   0.10902
C          C       0.05381   0.31439   0.74296   0.59286
C          C       0.00989   0.40616   0.87067  -0.02741
C          C       0.78641   0.34185   0.89367  -0.08372
C          C       0.21394   0.56186   0.97454  -0.09218
C          C       0.49282   0.09775   0.27992   0.59269
C          C       0.51179   0.05205   0.14081  -0.03803
C          C       0.32321   0.08690   0.03789  -0.09301
C          C       0.69657   0.96868   0.10718  -0.07652
C          C       0.92571   0.67881   0.25008   0.59876
C          C       0.96752   0.58676   0.12154  -0.03189
C          C       0.19203   0.65139   0.09894  -0.07989
C          C       0.76431   0.43118   0.01844  -0.09112
C          C       0.51408   0.90192   0.72549   0.59904
C          C       0.49876   0.95001   0.86624  -0.03530
C          C       0.69325   0.91876   0.97097  -0.09591
C          C       0.31614   0.03441   0.90026  -0.07726
O          O       0.68636   0.81040   0.47244  -0.81894
O          O       0.91500   0.15683   0.66324  -0.63055
O          O       0.23146   0.38713   0.71879  -0.45882
O          O       0.61567   0.03122   0.35931  -0.62569
O          O       0.34845   0.18896   0.31194  -0.46214
O          O       0.30468   0.18182   0.52489  -0.82468
O          O       0.06746   0.83484   0.33047  -0.62833
O          O       0.74689   0.60676   0.27372  -0.45935
O          O       0.37018   0.95572   0.64137  -0.62252
O          O       0.66477   0.81548   0.69685  -0.47681

