data_crystal

_audit_creation_method 'AiiDA-DDEC plugin'

_cell_length_a         6.67132
_cell_length_b         8.80225
_cell_length_c        10.08567

_cell_angle_alpha     105.57191
_cell_angle_beta     105.75605
_cell_angle_gamma     104.88715

_symmetry_space_group_name_Hall 'P 1'
_symmetry_space_group_name_H-M  'P 1'

loop_
_symmetry_equiv_pos_as_xyz
 'x,y,z'

loop_
_atom_site_label
_atom_site_type_symbol
_atom_site_fract_x
_atom_site_fract_y
_atom_site_fract_z
_atom_site_charge
Cd         Cd      0.78095   0.55445   0.65379   1.10651
Cd         Cd      0.21916   0.44572   0.34624   1.10665
Cd         Cd      0.50014   0.00009   0.50007   1.15571
H          H       0.18351   0.51581   0.91485   0.12878
H          H       0.75744   0.93232   0.24384   0.11852
H          H       0.86112   0.00840   0.04733   0.11256
H          H       0.81659   0.48419   0.08534   0.12857
H          H       0.24287   0.06773   0.75623   0.11868
H          H       0.13878   0.99161   0.95263   0.11269
C          C       0.58450   0.80308   0.86812  -0.02580
C          C       0.39201   0.66314   0.83125  -0.09191
C          C       0.33021   0.62472   0.94313  -0.09426
C          C       0.45961   0.72094   0.09254  -0.03715
C          C       0.65303   0.85779   0.12868  -0.04528
C          C       0.71330   0.89934   0.01701  -0.11039
C          C       0.64353   0.85356   0.74809   0.60072
C          C       0.26515   0.54608   0.67478   0.60807
C          C       0.39111   0.66606   0.20622   0.58864
C          C       0.41566   0.19663   0.13176  -0.02547
C          C       0.60800   0.33698   0.16884  -0.09176
C          C       0.66973   0.37541   0.05695  -0.09451
C          C       0.54069   0.27891   0.90748  -0.03667
C          C       0.34712   0.14241   0.87139  -0.04559
C          C       0.28662   0.10074   0.98298  -0.11066
C          C       0.35638   0.14614   0.25173   0.60090
C          C       0.73478   0.45391   0.32532   0.60791
C          C       0.60905   0.33414   0.79384   0.58838
O          O       0.80812   0.83170   0.71664  -0.56505
O          O       0.51779   0.92388   0.68911  -0.55049
O          O       0.37975   0.53942   0.59021  -0.58372
O          O       0.06136   0.45721   0.63151  -0.57311
O          O       0.23532   0.52182   0.15703  -0.54141
O          O       0.48988   0.75239   0.34503  -0.62311
O          O       0.19192   0.16835   0.28343  -0.56572
O          O       0.48224   0.07618   0.31097  -0.55032
O          O       0.62011   0.46065   0.40978  -0.58325
O          O       0.93874   0.54282   0.36857  -0.57355
O          O       0.76484   0.47824   0.84302  -0.54047
O          O       0.51034   0.24764   0.65498  -0.62364

