data_crystal

_audit_creation_method 'AiiDA-DDEC plugin'

_cell_length_a         7.84535
_cell_length_b         8.91097
_cell_length_c        11.70271

_cell_angle_alpha     77.08551
_cell_angle_beta     70.44478
_cell_angle_gamma     63.77848

_symmetry_space_group_name_Hall 'P 1'
_symmetry_space_group_name_H-M  'P 1'

loop_
_symmetry_equiv_pos_as_xyz
 'x,y,z'

loop_
_atom_site_label
_atom_site_type_symbol
_atom_site_fract_x
_atom_site_fract_y
_atom_site_fract_z
_atom_site_charge
Cd         Cd      0.42777   0.24977   0.75006   1.07414
Cd         Cd      0.57222   0.75022   0.24995   1.07415
H          H       0.57892   0.50884   0.07512   0.31578
H          H       0.65533   0.29276   0.08448   0.33178
H          H       0.16215   0.99165   0.42492   0.31516
H          H       0.03261   0.20794   0.41548   0.33097
H          H       0.42107   0.49116   0.92488   0.31592
H          H       0.34466   0.70724   0.91552   0.33178
H          H       0.83784   0.00835   0.57509   0.31509
H          H       0.96738   0.79206   0.58453   0.33103
C          C       0.53502   0.39918   0.24814   0.56737
C          C       0.57511   0.23754   0.32024  -0.31819
C          C       0.56765   0.22938   0.44193   0.35285
C          C       0.63320   0.08702   0.27266   0.31704
C          C       0.18153   0.10123   0.25188   0.56537
C          C       0.13273   0.26289   0.17973  -0.31776
C          C       0.23896   0.27063   0.05810   0.35233
C          C       0.99338   0.41374   0.22730   0.31584
C          C       0.46497   0.60081   0.75187   0.56716
C          C       0.42488   0.76245   0.67976  -0.31818
C          C       0.43234   0.77062   0.55807   0.35284
C          C       0.36678   0.91297   0.72734   0.31702
C          C       0.81846   0.89876   0.74813   0.56535
C          C       0.86726   0.73710   0.82027  -0.31770
C          C       0.76103   0.72937   0.94191   0.35215
C          C       0.00661   0.58625   0.77271   0.31578
N          N       0.57117   0.40143   0.12537  -0.64586
N          N       0.57119   0.21560   0.54345  -0.46355
N          N       0.68416   0.95969   0.23226  -0.44584
N          N       0.09741   0.09930   0.37464  -0.64329
N          N       0.33051   0.28398   0.95664  -0.46311
N          N       0.87710   0.54132   0.26773  -0.44576
N          N       0.42882   0.59857   0.87463  -0.64587
N          N       0.42880   0.78440   0.45656  -0.46352
N          N       0.31583   0.04031   0.76775  -0.44579
N          N       0.90258   0.90070   0.62536  -0.64341
N          N       0.66948   0.71601   0.04336  -0.46280
N          N       0.12289   0.45867   0.73227  -0.44565
O          O       0.46669   0.53171   0.29964  -0.54812
O          O       0.29646   0.96844   0.20044  -0.54721
O          O       0.53330   0.46829   0.70036  -0.54805
O          O       0.70353   0.03155   0.79956  -0.54723

