data_crystal

_audit_creation_method 'AiiDA-DDEC plugin'

_cell_length_a         7.73441
_cell_length_b         8.54173
_cell_length_c        12.67242

_cell_angle_alpha     64.92648
_cell_angle_beta     47.02510
_cell_angle_gamma     63.00420

_symmetry_space_group_name_Hall 'P 1'
_symmetry_space_group_name_H-M  'P 1'

loop_
_symmetry_equiv_pos_as_xyz
 'x,y,z'

loop_
_atom_site_label
_atom_site_type_symbol
_atom_site_fract_x
_atom_site_fract_y
_atom_site_fract_z
_atom_site_charge
Mn         Mn      0.06188   0.81959   0.25007   1.04943
Mn         Mn      0.93816   0.18057   0.74975   1.04925
H          H       0.56108   0.64238   0.56794   0.31911
H          H       0.49586   0.85515   0.48775   0.32887
H          H       0.08541   0.57325   0.85584   0.30311
H          H       0.18197   0.34973   0.84648   0.34307
H          H       0.43891   0.35777   0.43194   0.31877
H          H       0.50401   0.14509   0.51214   0.32884
H          H       0.91458   0.42688   0.14402   0.30313
H          H       0.81812   0.65037   0.15333   0.34264
C          C       0.37076   0.83425   0.69321   0.55451
C          C       0.37765   0.71251   0.81264  -0.32541
C          C       0.28286   0.78006   0.93052   0.34543
C          C       0.49536   0.53190   0.80907   0.30346
C          C       0.05401   0.51204   0.72922   0.56275
C          C       0.95683   0.69596   0.68549  -0.31658
C          C       0.95204   0.73693   0.56842   0.34062
C          C       0.88346   0.83507   0.74831   0.32418
C          C       0.62927   0.16591   0.30663   0.55473
C          C       0.62236   0.28765   0.18722  -0.32556
C          C       0.71715   0.22013   0.06933   0.34540
C          C       0.50470   0.46828   0.19076   0.30429
C          C       0.94610   0.48808   0.27062   0.56246
C          C       0.04333   0.30417   0.31431  -0.31609
C          C       0.04806   0.26322   0.43139   0.33985
C          C       0.11662   0.16504   0.25153   0.32429
N          N       0.44768   0.76705   0.58421  -0.63384
N          N       0.20396   0.83229   0.03119  -0.43018
N          N       0.59394   0.37914   0.80389  -0.44296
N          N       0.08164   0.47411   0.83354  -0.63598
N          N       0.95108   0.77146   0.46872  -0.43705
N          N       0.82149   0.95195   0.80200  -0.43925
N          N       0.55228   0.23317   0.41563  -0.63364
N          N       0.79602   0.16798   0.96863  -0.43045
N          N       0.40612   0.62104   0.19590  -0.44354
N          N       0.91834   0.52602   0.16635  -0.63602
N          N       0.04904   0.22866   0.53109  -0.43654
N          N       0.17862   0.04818   0.19780  -0.43938
O          O       0.28684   0.00172   0.69401  -0.55948
O          O       0.10948   0.38858   0.67306  -0.55364
O          O       0.71318  -0.00156   0.30585  -0.55944
O          O       0.89059   0.61159   0.32673  -0.55319

