data_crystal

_audit_creation_method 'AiiDA-DDEC plugin'

_cell_length_a         7.90186
_cell_length_b         8.70013
_cell_length_c        11.55009

_cell_angle_alpha     98.38976
_cell_angle_beta     53.32314
_cell_angle_gamma     75.53028

_symmetry_space_group_name_Hall 'P 1'
_symmetry_space_group_name_H-M  'P 1'

loop_
_symmetry_equiv_pos_as_xyz
 'x,y,z'

loop_
_atom_site_label
_atom_site_type_symbol
_atom_site_fract_x
_atom_site_fract_y
_atom_site_fract_z
_atom_site_charge
Cd         Cd      0.20792   0.77595   0.92686   1.03485
Cd         Cd      0.24508   0.30253   0.49598   1.14813
Cd         Cd      0.79207   0.22406   0.07315   1.03484
Cd         Cd      0.75492   0.69748   0.50404   1.14813
H          H       0.30272   0.11614   0.04908   0.13579
H          H       0.69728   0.88387   0.95093   0.13578
C          C       0.17014   0.69881   0.19368   0.54211
C          C       0.23181   0.52642   0.09023   0.06400
C          C       0.25134   0.37746   0.12357  -0.04324
C          C       0.20838   0.36822   0.26735   0.60073
C          C       0.29480   0.23179   0.02297  -0.06816
C          C       0.32070   0.23315   0.89206  -0.05093
C          C       0.36159   0.06776   0.79661   0.61948
C          C       0.29875   0.38683   0.86604   0.09818
C          C       0.30139   0.41878   0.73878   0.55765
C          C       0.82986   0.30121   0.80634   0.54212
C          C       0.76818   0.47359   0.90979   0.06399
C          C       0.74865   0.62255   0.87645  -0.04362
C          C       0.79160   0.63180   0.73267   0.60098
C          C       0.70520   0.76822   0.97705  -0.06797
C          C       0.67930   0.76686   0.10796  -0.05093
C          C       0.63841   0.93225   0.20341   0.61946
C          C       0.70125   0.61318   0.13397   0.09809
C          C       0.69860   0.58123   0.26124   0.55782
N          N       0.25443   0.52494   0.96554  -0.28897
N          N       0.74556   0.47507   0.03448  -0.28880
O          O       0.18653   0.81775   0.14177  -0.53218
O          O       0.10689   0.70796   0.32562  -0.54543
O          O       0.00530   0.40091   0.38704  -0.52608
O          O       0.38475   0.31267   0.25813  -0.58226
O          O       0.19308   0.02096   0.87523  -0.60618
O          O       0.55176   0.98466   0.66130  -0.48216
O          O       0.31188   0.29444   0.65730  -0.53297
O          O       0.28409   0.56299   0.72748  -0.54231
O          O       0.81347   0.18226   0.85824  -0.53224
O          O       0.89311   0.29205   0.67440  -0.54556
O          O       0.99469   0.59910   0.61298  -0.52618
O          O       0.61524   0.68735   0.74189  -0.58241
O          O       0.80692   0.97905   0.12478  -0.60606
O          O       0.44824   0.01535   0.33871  -0.48219
O          O       0.68812   0.70557   0.34272  -0.53303
O          O       0.71590   0.43702   0.27254  -0.54227

