data_crystal

_audit_creation_method 'AiiDA-DDEC plugin'

_cell_length_a         7.75134
_cell_length_b        10.70510
_cell_length_c        13.02198

_cell_angle_alpha     102.38795
_cell_angle_beta     104.86447
_cell_angle_gamma     121.60813

_symmetry_space_group_name_Hall 'P 1'
_symmetry_space_group_name_H-M  'P 1'

loop_
_symmetry_equiv_pos_as_xyz
 'x,y,z'

loop_
_atom_site_label
_atom_site_type_symbol
_atom_site_fract_x
_atom_site_fract_y
_atom_site_fract_z
_atom_site_charge
V          V       0.06276   0.77224   0.05252   1.73242
V          V       0.77378   0.38884   0.87788   1.22334
V          V       0.94533   0.22741   0.95624   1.78885
V          V       0.18964   0.59118   0.08506   1.60155
Co         Co      0.49151   0.50154   0.98759   0.95701
Co         Co      0.01359   0.99728   0.01104   0.62344
H          H       0.30649   0.02461   0.89922   0.10947
H          H       0.30141   0.03799   0.71213   0.12515
H          H       0.58634   0.81197   0.58515   0.12867
H          H       0.62854   0.82052   0.78171   0.08886
H          H       0.75162   0.88832   0.45669   0.11436
H          H       0.77796   0.71969   0.23841   0.09362
H          H       0.95786   0.70984   0.41992   0.10588
H          H       0.70647   0.22741   0.20330   0.12665
H          H       0.52521   0.25620   0.03250   0.08991
H          H       0.92447   0.33492   0.41052   0.10422
H          H       0.71649   0.96039   0.11799   0.11414
H          H       0.71900   0.95182   0.30551   0.12722
H          H       0.44041   0.19592   0.44123   0.12455
H          H       0.40161   0.18333   0.24357   0.08876
H          H       0.27175   0.11478   0.56695   0.10547
H          H       0.18827   0.27678   0.74151   0.10497
H          H       0.00042   0.28061   0.55825   0.11094
H          H       0.27422   0.77181   0.76767   0.11877
H          H       0.46442   0.75028   0.94007   0.10442
H          H       0.04609   0.65876   0.56303   0.10336
C          C       0.15257   0.98294   0.82789   0.10016
C          C       0.14579   0.98787   0.72169  -0.17039
C          C       0.94333   0.93460   0.63119   0.12923
C          C       0.75101   0.86304   0.65251  -0.17156
C          C       0.77159   0.86579   0.76174   0.07555
C          C       0.92406   0.95389   0.52300  -0.12959
C          C       0.76419   0.61270   0.23613   0.09551
C          C       0.86392   0.60536   0.33651  -0.18023
C          C       0.84522   0.46474   0.32926   0.12755
C          C       0.72465   0.33838   0.21629  -0.14846
C          C       0.62362   0.35305   0.12008   0.08835
C          C       0.93675   0.44435   0.43009  -0.13451
C          C       0.87207   0.00937   0.19168   0.10593
C          C       0.87705   0.00662   0.29822  -0.18200
C          C       0.08079   0.06617   0.39147   0.13111
C          C       0.27530   0.14059   0.37187  -0.17556
C          C       0.25683   0.13562   0.26232   0.07462
C          C       0.09957   0.04853   0.50021  -0.12899
C          C       0.20516   0.38415   0.74162   0.09110
C          C       0.10070   0.38804   0.64048  -0.19504
C          C       0.12474   0.52988   0.64529   0.12187
C          C       0.25214   0.65996   0.75711  -0.17347
C          C       0.35768   0.64895   0.85415   0.11393
C          C       0.03209   0.54860   0.54387  -0.14284
N          N       0.97173   0.93131   0.85182  -0.19896
N          N       0.64194   0.48791   0.12810  -0.24416
N          N       0.05628   0.06486   0.17025  -0.19573
N          N       0.33684   0.51360   0.84793  -0.24439
O          O       0.54786   0.36619   0.88300  -0.78719
O          O       0.80221   0.71285   0.02704  -0.83081
O          O       0.20026   0.75242   0.17776  -0.88831
O          O       0.22852   0.95894   0.05300  -0.78291
O          O       0.04437   0.60870   0.94800  -1.00066
O          O       0.43686   0.64334   0.09378  -0.77759
O          O       0.18913   0.28808   0.95270  -0.81808
O          O       0.76681   0.21101   0.82506  -0.92531
O          O       0.81551   0.04793   0.97116  -0.78708
O          O       0.02706   0.39341   0.08467  -0.95706

