data_crystal

_audit_creation_method 'AiiDA-DDEC plugin'

_cell_length_a         6.61696
_cell_length_b         9.74389
_cell_length_c        13.55144

_cell_angle_alpha     110.08330
_cell_angle_beta     89.99732
_cell_angle_gamma     90.00392

_symmetry_space_group_name_Hall 'P 1'
_symmetry_space_group_name_H-M  'P 1'

loop_
_symmetry_equiv_pos_as_xyz
 'x,y,z'

loop_
_atom_site_label
_atom_site_type_symbol
_atom_site_fract_x
_atom_site_fract_y
_atom_site_fract_z
_atom_site_charge
Zn         Zn      0.24984   0.82021   0.78012   0.86772
Zn         Zn      0.74985   0.18019   0.21999   0.86754
Zn         Zn     -0.00022   0.00024  -0.00005   0.85070
Zn         Zn      0.49977   0.00071   0.00002   0.85045
H          H       0.25184   0.45004   0.44678   0.13361
H          H       0.75179   0.55041   0.55351   0.13412
H          H       0.24646   0.98657   0.40112   0.13311
H          H       0.74624   0.01382   0.59898   0.13328
C          C       0.24967   0.18417   0.29830   0.26738
C          C       0.24606   0.28961   0.62661   0.23413
C          C       0.24926   0.21660   0.41282   0.01045
C          C       0.74962   0.81622   0.70188   0.26730
C          C       0.74591   0.71067   0.37357   0.23355
C          C       0.74915   0.78381   0.58736   0.01160
C          C       0.24963   0.56347   0.65908   0.55192
C          C       0.24864   0.40647   0.59122  -0.10259
C          C       0.25014   0.36281   0.47997  -0.06098
C          C       0.74962   0.43684   0.34114   0.55258
C          C       0.74855   0.59385   0.40900  -0.10245
C          C       0.75006   0.63758   0.52025  -0.06200
C          C       0.24358   0.10714   0.65942   0.53042
C          C       0.24565   0.14331   0.56129  -0.18810
C          C       0.24707   0.10018   0.45295  -0.06502
C          C       0.74338   0.89307   0.34067   0.53041
C          C       0.74544   0.85699   0.43884  -0.18690
C          C       0.74688   0.90019   0.54719  -0.06645
N          N       0.34969   0.13907   0.14000  -0.04381
N          N       0.41696   0.16644   0.23779  -0.22426
N          N       0.84970   0.86119   0.86016  -0.04437
N          N       0.91692   0.83390   0.76236  -0.22469
N          N       0.14942   0.13811   0.13995  -0.04350
N          N       0.08227   0.16483   0.23769  -0.22654
N          N       0.64941   0.86212   0.86023  -0.04263
N          N       0.58225   0.83549   0.76249  -0.22738
O          O       0.24975   0.95501   0.92467  -0.93305
O          O       0.74976   0.04593   0.07531  -0.93309
O          O       0.25012   0.66116   0.61647  -0.55097
O          O       0.24985   0.59480   0.75882  -0.52579
O          O       0.75014   0.33911   0.38370  -0.55080
O          O       0.74986   0.40555   0.24139  -0.52651
O          O       0.24265   0.00705   0.69144  -0.36963
O          O       0.24338   0.26292   0.72348  -0.24434
O          O       0.74244   0.99309   0.30857  -0.37016
O          O       0.74325   0.73727   0.27667  -0.24427

