data_crystal

_audit_creation_method 'AiiDA-DDEC plugin'

_cell_length_a         7.16618
_cell_length_b         7.16622
_cell_length_c        16.16189

_cell_angle_alpha     89.98978
_cell_angle_beta     89.99730
_cell_angle_gamma     120.82127

_symmetry_space_group_name_Hall 'P 1'
_symmetry_space_group_name_H-M  'P 1'

loop_
_symmetry_equiv_pos_as_xyz
 'x,y,z'

loop_
_atom_site_label
_atom_site_type_symbol
_atom_site_fract_x
_atom_site_fract_y
_atom_site_fract_z
_atom_site_charge
Cu         Cu     -0.00347   0.00324  -0.00174   1.06618
Cu         Cu     -0.00349   0.00349   0.49826   1.06633
H          H       0.96099   0.83299   0.74828   0.13590
H          H       0.03043   0.17339   0.74825   0.13576
H          H       0.16632   0.03775   0.24826   0.13534
H          H       0.82661   0.96949   0.24827   0.13570
C          C       0.98837   0.59787   0.82279   0.02194
C          C       0.00327   0.40855   0.82278   0.02189
C          C       0.96205   0.69010   0.90276   0.53548
C          C       0.03015   0.31671   0.90278   0.53417
C          C       0.40172   0.01091   0.17374   0.02175
C          C       0.59123  -0.00368   0.17374   0.02115
C          C       0.30955   0.03738   0.09378   0.53567
C          C       0.68313   0.96961   0.09374   0.53476
C          C       0.40174   0.01099   0.32279   0.02186
C          C       0.59125  -0.00360   0.32278   0.02117
C          C       0.30960   0.03754   0.40275   0.53537
C          C       0.68319   0.96978   0.40279   0.53507
C          C       0.98842   0.59799   0.67375   0.02196
C          C       0.00329   0.40865   0.67374   0.02143
C          C       0.96212   0.69027   0.59378   0.53496
C          C       0.03012   0.31685   0.59373   0.53477
C          C       0.97652   0.68953   0.74827  -0.11829
C          C       0.01499   0.31690   0.74826  -0.11764
C          C       0.30998   0.02256   0.24826  -0.11719
C          C       0.68299   0.98474   0.24827  -0.11733
O          O       0.09961   0.89686   0.91314  -0.45768
O          O       0.80820   0.56763   0.94780  -0.37523
O          O       0.89351   0.10973   0.91315  -0.45750
O          O       0.18360   0.43992   0.94781  -0.37382
O          O       0.10279   0.89991   0.08336  -0.45738
O          O       0.43210   0.19134   0.04879  -0.37563
O          O       0.89011   0.10627   0.08339  -0.45795
O          O       0.55995   0.81622   0.04869  -0.37378
O          O       0.10279   0.90021   0.41317  -0.45740
O          O       0.43221   0.19141   0.44773  -0.37550
O          O       0.89014   0.10656   0.41313  -0.45788
O          O       0.56008   0.81631   0.44786  -0.37409
O          O       0.09955   0.89707   0.58340  -0.45755
O          O       0.80834   0.56775   0.54874  -0.37498
O          O       0.89342   0.10989   0.58337  -0.45761
O          O       0.18361   0.44005   0.54869  -0.37417

