data_crystal

_audit_creation_method 'AiiDA-DDEC plugin'

_cell_length_a         6.51256
_cell_length_b        10.94675
_cell_length_c        10.94687

_cell_angle_alpha     73.06116
_cell_angle_beta     73.91362
_cell_angle_gamma     73.91399

_symmetry_space_group_name_Hall 'P 1'
_symmetry_space_group_name_H-M  'P 1'

loop_
_symmetry_equiv_pos_as_xyz
 'x,y,z'

loop_
_atom_site_label
_atom_site_type_symbol
_atom_site_fract_x
_atom_site_fract_y
_atom_site_fract_z
_atom_site_charge
Al         Al     -0.00001  -0.00000   0.50003   1.64923
Al         Al      0.50001  -0.00002   0.49999   1.64920
H          H       0.68061   0.90377   0.13347   0.12868
H          H       0.81776   0.89662   0.89676   0.13022
H          H       0.32002   0.09571   0.86670   0.12752
H          H       0.18285   0.10286   0.10341   0.13021
H          H       0.31727   0.39663   0.39703   0.13033
H          H       0.81951   0.36656   0.59612   0.12896
H          H       0.68236   0.60327   0.60326   0.13031
H          H       0.18012   0.63333   0.40418   0.12887
C          C       0.18109   0.05382   0.92596  -0.09647
C          C       0.07690   0.99522   0.86875  -0.03941
C          C       0.15612   0.99162   0.72832   0.64146
C          C       0.39552   0.44298   0.44166  -0.09140
C          C       0.31903   0.57407   0.44607  -0.09775
C          C       0.42319   0.63127   0.50469  -0.03972
C          C       0.34391   0.77168   0.50835   0.64182
C          C       0.10460   0.05823   0.05705  -0.09099
C          C       0.81949   0.94569   0.07420  -0.09764
C          C       0.92357   0.00438   0.13138  -0.04031
C          C       0.84409   0.00820   0.27175   0.64208
C          C       0.60414   0.55692   0.55861  -0.09107
C          C       0.68062   0.42584   0.55421  -0.09796
C          C       0.57653   0.36865   0.49553  -0.03995
C          C       0.65596   0.22826   0.49176   0.64212
C          C       0.89597   0.94129   0.94310  -0.09113
O          O       0.03283   0.95935   0.67566  -0.61591
O          O       0.84177   0.17033   0.52039  -0.60401
O          O       0.46718   0.82435   0.54064  -0.61598
O          O       0.65825   0.97960   0.32967  -0.60416
O          O       0.96723   0.04060   0.32441  -0.61582
O          O       0.15814   0.82965   0.47970  -0.60406
O          O       0.53281   0.17560   0.45938  -0.61607
O          O       0.34188   0.02030   0.67034  -0.60378
F          F       0.25001   0.06289   0.43711  -0.55367
F          F       0.75000   0.93709   0.56290  -0.55375

