data_crystal

_audit_creation_method 'AiiDA-DDEC plugin'

_cell_length_a         9.73208
_cell_length_b        10.16802
_cell_length_c        12.48955

_cell_angle_alpha     88.90823
_cell_angle_beta     67.79140
_cell_angle_gamma     61.36684

_symmetry_space_group_name_Hall 'P 1'
_symmetry_space_group_name_H-M  'P 1'

loop_
_symmetry_equiv_pos_as_xyz
 'x,y,z'

loop_
_atom_site_label
_atom_site_type_symbol
_atom_site_fract_x
_atom_site_fract_y
_atom_site_fract_z
_atom_site_charge
Mn         Mn      0.73635   0.76652   0.39883   1.37321
Mn         Mn      0.26374   0.23371   0.59961   1.36950
Ga         Ga      0.85327   0.94342   0.16731   1.51747
Ga         Ga      0.90772   0.85116   0.66104   1.52260
Ga         Ga      0.14752   0.05609   0.82922   1.51814
Ga         Ga      0.09225   0.14870   0.33777   1.52112
P          P       0.99358   0.83479   0.88612   1.55397
P          P       0.89599   0.96568   0.42148   1.55343
P          P       0.46210   0.04109   0.32794   1.55670
P          P       0.00767   0.16435   0.11145   1.55319
P          P       0.10406   0.03431   0.57707   1.55483
P          P       0.53840   0.95878   0.67000   1.55804
H          H       0.63343   0.13623   0.54760   0.41498
H          H       0.04434   0.60512   0.89789   0.38606
H          H       0.36675   0.86414   0.45064   0.41518
H          H       0.95742   0.39405   0.10066   0.38499
C          C       0.02110   0.60691   0.12480   0.50562
C          C       0.18261   0.66313   0.10586   0.53109
C          C       0.01503   0.53323   0.63265   0.45597
C          C       0.17814   0.53571   0.61141   0.45948
C          C       0.98016   0.39268   0.87382   0.50681
C          C       0.81842   0.33721   0.89204   0.53081
C          C       0.98530   0.46665   0.36580   0.45630
C          C       0.82243   0.46408   0.38647   0.45982
O          O       0.86760   0.93849   0.00934  -0.71350
O          O       0.13092   0.87804   0.82044  -0.70327
O          O       0.88522   0.83914   0.82195  -0.72084
O          O       0.10357   0.66232   0.89792  -0.66578
O          O       0.04168   0.98542   0.33552  -0.75225
O          O       0.95096   0.84372   0.49451  -0.79422
O          O       0.82644   0.90596   0.34626  -0.80638
O          O       0.74593   0.12837   0.49725  -0.64724
O          O       0.60931   0.04830   0.22930  -0.70016
O          O       0.34113   0.03142   0.28232  -0.70607
O          O       0.36580   0.17994   0.43125  -0.71942
O          O       0.53527   0.88852   0.37832  -0.74317
O          O       0.87932   0.65614   0.65416  -0.40450
O          O       0.17166   0.66110   0.61174  -0.39518
O          O       0.11178   0.80517   0.11564  -0.43887
O          O       0.87231   0.72421   0.17000  -0.49431
O          O       0.30879   0.40306   0.59849  -0.40005
O          O       0.03277   0.39866   0.62901  -0.44668
O          O       0.08066   0.47096   0.09648  -0.34418
O          O       0.31902   0.55284   0.09013  -0.23422
O          O       0.13292   0.06127   0.98790  -0.71157
O          O       0.86987   0.12140   0.17671  -0.70071
O          O       0.11607   0.15891   0.17595  -0.71845
O          O       0.89787   0.33726   0.10044  -0.66456
O          O       0.95848   0.01441   0.66291  -0.75282
O          O       0.04906   0.15657   0.50422  -0.79387
O          O       0.17340   0.09403   0.65245  -0.80901
O          O       0.25433   0.87189   0.50102  -0.64816
O          O       0.39156   0.95055   0.76807  -0.69987
O          O       0.65907   0.96811   0.71604  -0.70725
O          O       0.63527   0.81955   0.56633  -0.71636
O          O       0.46545   0.11108   0.61971  -0.74626
O          O       0.12101   0.34367   0.34416  -0.40436
O          O       0.82915   0.33857   0.38562  -0.39497
O          O       0.88851   0.19521   0.88253  -0.43900
O          O       0.12882   0.27532   0.82828  -0.49530
O          O       0.69181   0.59668   0.39930  -0.39931
O          O       0.96738   0.60128   0.36984  -0.44636
O          O       0.92090   0.52846   0.90291  -0.34612
O          O       0.68240   0.44774   0.90730  -0.23470

