data_crystal

_audit_creation_method 'AiiDA-DDEC plugin'

_cell_length_a         9.13275
_cell_length_b        12.33071
_cell_length_c        12.22382

_cell_angle_alpha     82.34769
_cell_angle_beta     84.59255
_cell_angle_gamma     85.40720

_symmetry_space_group_name_Hall 'P 1'
_symmetry_space_group_name_H-M  'P 1'

loop_
_symmetry_equiv_pos_as_xyz
 'x,y,z'

loop_
_atom_site_label
_atom_site_type_symbol
_atom_site_fract_x
_atom_site_fract_y
_atom_site_fract_z
_atom_site_charge
Ga         Ga      0.13800   0.01950   0.30639   1.50583
Ga         Ga      0.42024   0.84682   0.61392   1.54981
Ga         Ga      0.34967   0.68678   0.98332   1.50170
Ga         Ga      0.07398   0.39382   0.14723   1.54659
Ga         Ga      0.85669   0.97561   0.69477   1.50375
Ga         Ga      0.57459   0.14990   0.38578   1.54868
Ga         Ga      0.64595   0.30906   0.01793   1.50136
Ga         Ga      0.92409   0.60395   0.85232   1.54307
P          P       0.36624   0.25171   0.19579   1.59344
P          P       0.46937   0.92455   0.37026   1.45248
P          P       0.12853   0.80338   0.75314   1.59311
P          P       0.01376   0.63480   0.07881   1.48559
P          P       0.62949   0.74394   0.80374   1.59716
P          P       0.52710   0.07182   0.62952   1.45180
P          P       0.86838   0.19376   0.24736   1.59760
P          P       0.98020   0.36322   0.92111   1.48704
P          P       0.25360   0.82060   0.18015   1.38377
P          P       0.74258   0.17534   0.82026   1.38325
H          H       0.28736   0.11005   0.13361   0.44907
H          H       0.21624   0.86560   0.89219   0.45108
H          H       0.70356   0.88763   0.86598   0.45061
H          H       0.78348   0.13225   0.10674   0.45217
C          C       0.01382   0.05685   0.50858   0.46071
C          C       0.48248   0.49038   0.94065   0.46098
C          C       0.98142   0.93813   0.49268   0.46194
C          C       0.51112   0.50483   0.06119   0.46339
O          O       0.26167   0.14767   0.19947  -0.71033
O          O       0.20616   0.94339   0.18431  -0.75496
O          O       0.46725   0.23950   0.09160  -0.80323
O          O       0.31659   0.98215   0.38594  -0.85129
O          O       0.08281   0.11312   0.42861  -0.44515
O          O       0.96881   0.08971   0.60039  -0.43711
O          O       0.49434   0.83403   0.46879  -0.70991
O          O       0.26241   0.35607   0.19566  -0.75045
O          O       0.43872   0.23827   0.30557  -0.76180
O          O       0.59362   0.00524   0.35251  -0.76006
O          O       0.49869   0.87222   0.25445  -0.24922
O          O       0.15465   0.73339   0.23789  -0.48810
O          O       0.24351   0.80425   0.84889  -0.70758
O          O       0.30745   0.81440   0.05720  -0.74504
O          O       0.02540   0.90411   0.77008  -0.79896
O          O       0.16366   0.62321   0.00906  -0.87519
O          O       0.40673   0.56620   0.88698  -0.44322
O          O       0.53764   0.40339   0.90391  -0.45205
O          O       0.00581   0.53375   0.17157  -0.71090
O          O       0.22654   0.80942   0.64230  -0.75347
O          O       0.06015   0.69308   0.76781  -0.76014
O          O       0.88903   0.62783  -0.00069  -0.75423
O          O       0.97564   0.74460   0.12398  -0.47494
O          O       0.39061   0.78358   0.26138  -0.24382
O          O       0.73052   0.85011   0.80019  -0.71190
O          O       0.78853   0.05237   0.81653  -0.75453
O          O       0.53129   0.75254   0.90990  -0.80448
O          O       0.67992   0.01441   0.61353  -0.85040
O          O       0.91227   0.88192   0.57259  -0.44577
O          O       0.02639   0.90534   0.40081  -0.43656
O          O       0.50099   0.16213   0.53111  -0.70945
O          O       0.73766   0.64242   0.80000  -0.74974
O          O       0.55320   0.75711   0.69559  -0.76360
O          O       0.40304   0.99108   0.64801  -0.76086
O          O       0.49852   0.12441   0.74530  -0.24896
O          O       0.84330   0.26164   0.76244  -0.47990
O          O       0.75653   0.19429   0.14914  -0.70910
O          O       0.68820   0.18206   0.94287  -0.74352
O          O       0.96791   0.09067   0.23304  -0.79953
O          O       0.83016   0.37572   0.99036  -0.87343
O          O       0.58721   0.42896   0.11452  -0.44527
O          O       0.45557   0.59153   0.09834  -0.45104
O          O       0.98886   0.46332   0.82760  -0.70927
O          O       0.76694   0.19064   0.35647  -0.75349
O          O       0.94172   0.30201   0.23291  -0.76418
O          O       0.10543   0.37070  -0.00009  -0.75682
O          O       0.01798   0.25260   0.87703  -0.47102
O          O       0.60635   0.21307   0.73841  -0.24201

