data_crystal

_audit_creation_method 'AiiDA-DDEC plugin'

_cell_length_a        13.56154
_cell_length_b        14.86900
_cell_length_c        11.51865

_cell_angle_alpha     89.60687
_cell_angle_beta     90.11935
_cell_angle_gamma     90.07360

_symmetry_space_group_name_Hall 'P 1'
_symmetry_space_group_name_H-M  'P 1'

loop_
_symmetry_equiv_pos_as_xyz
 'x,y,z'

loop_
_atom_site_label
_atom_site_type_symbol
_atom_site_fract_x
_atom_site_fract_y
_atom_site_fract_z
_atom_site_charge
Mn         Mn      0.18820   0.73396   0.91410   1.03628
Mn         Mn      0.97950   0.63286   0.03419   1.04003
Mn         Mn      0.32027   0.26241   0.41700   1.03243
Mn         Mn      0.52531   0.36446   0.53687   1.03828
Mn         Mn      0.81964   0.23555   0.57202   1.03484
Mn         Mn      0.02874   0.13529   0.45320   1.03588
Mn         Mn      0.68813   0.76520   0.07841   1.03661
Mn         Mn      0.48212   0.86756   0.95846   1.04250
H          H       0.30232   0.75351   0.12377   0.10679
H          H       0.50157   0.57875   0.30689   0.13575
H          H       0.19051   0.51788   0.30032   0.13630
H          H       0.20446   0.24427   0.62701   0.10806
H          H       0.00325   0.41685   0.80720   0.13577
H          H       0.31361   0.48097   0.79952   0.13629
H          H       0.70607   0.25844   0.36296   0.10813
H          H       0.50562   0.08097   0.18834   0.13552
H          H       0.81724   0.02217   0.19221   0.13587
H          H       0.80222   0.74848   0.86860   0.10684
H          H       0.00387   0.91592   0.67778   0.13585
H          H       0.69505   0.98473   0.68972   0.13573
C          C       0.13577   0.65623   0.15903   0.57978
C          C       0.23474   0.63864   0.20836  -0.05013
C          C       0.31406   0.69349   0.17650  -0.09267
C          C       0.41017   0.67127   0.20966  -0.04359
C          C       0.42700   0.59604   0.28044  -0.07347
C          C       0.34757   0.54171   0.31505  -0.04399
C          C       0.25159   0.56200   0.27759  -0.07347
C          C       0.49201   0.72616   0.16057   0.60525
C          C       0.36785   0.46042   0.38822   0.61110
C          C       0.37005   0.34201   0.66208   0.57998
C          C       0.27069   0.35958   0.70995  -0.05060
C          C       0.19202   0.30399   0.67875  -0.09243
C          C       0.09553   0.32549   0.71116  -0.04482
C          C       0.07804   0.40019   0.78131  -0.07329
C          C       0.15704   0.45516   0.81513  -0.04485
C          C       0.25302   0.43617   0.77745  -0.07153
C          C       0.01401   0.27072   0.66106   0.60435
C          C       0.13666   0.53649   0.88699   0.61063
C          C       0.87274   0.16262   0.32799   0.57856
C          C       0.77321   0.14344   0.28074  -0.04875
C          C       0.69402   0.19803   0.31224  -0.09418
C          C       0.59767   0.17464   0.28154  -0.04373
C          C       0.58058   0.09891   0.21308  -0.07278
C          C       0.65999   0.04487   0.17897  -0.04394
C          C       0.75608   0.06595   0.21459  -0.07303
C          C       0.51564   0.22824   0.33123   0.60459
C          C       0.63878   0.96293   0.10833   0.61035
C          C       0.63818   0.84807   0.83358   0.57918
C          C       0.73710   0.86390   0.78311  -0.04987
C          C       0.81508   0.80742   0.81441  -0.09208
C          C       0.91137   0.82700   0.77882  -0.04532
C          C       0.92914   0.90082   0.70596  -0.07147
C          C       0.85080   0.95672   0.67201  -0.04845
C          C       0.75506   0.93937   0.71228  -0.07082
C          C       0.99214   0.77067   0.82799   0.60706
C          C       0.87152   0.03719   0.59726   0.61205
Cl         Cl      0.31786   0.83938   0.88599  -0.50892
Cl         Cl      0.19855   0.14856   0.39664  -0.49917
Cl         Cl      0.69260   0.34278   0.60188  -0.50502
Cl         Cl      0.81192   0.65291   0.09872  -0.50438
O          O       0.12535   0.71663   0.07682  -0.60443
O          O       0.06183   0.60973   0.18979  -0.50859
O          O       0.46801   0.79960   0.11010  -0.58965
O          O       0.58049   0.69695   0.16807  -0.54207
O          O       0.44371   0.46333   0.45318  -0.54807
O          O       0.30719   0.39428   0.37903  -0.57525
O          O       0.38098   0.28154   0.58085  -0.60575
O          O       0.44395   0.38823   0.69289  -0.50525
O          O       0.03915   0.20015   0.60603  -0.59059
O          O       0.92493   0.29734   0.67178  -0.53996
O          O       0.05951   0.53484   0.94964  -0.54993
O          O       0.19885   0.60154   0.87907  -0.57487
O          O       0.88305   0.22288   0.40934  -0.60274
O          O       0.94721   0.11739   0.29677  -0.50949
O          O       0.53912   0.30055   0.38348  -0.58954
O          O       0.42730   0.19887   0.32293  -0.54140
O          O       0.56128   0.96505   0.04585  -0.54868
O          O       0.69997   0.89716   0.11671  -0.57507
O          O       0.62709   0.78710   0.91496  -0.60508
O          O       0.56488   0.89590   0.80425  -0.50636
O          O       0.96617   0.69909   0.88147  -0.58885
O          O       0.08149   0.79722   0.81802  -0.54259
O          O       0.94899   0.03518   0.53526  -0.54721
O          O       0.80935   0.10226   0.60203  -0.57847

