data_crystal

_audit_creation_method 'AiiDA-DDEC plugin'

_cell_length_a         6.62826
_cell_length_b        15.21661
_cell_length_c        15.22959

_cell_angle_alpha     118.12485
_cell_angle_beta     98.29953
_cell_angle_gamma     98.33803

_symmetry_space_group_name_Hall 'P 1'
_symmetry_space_group_name_H-M  'P 1'

loop_
_symmetry_equiv_pos_as_xyz
 'x,y,z'

loop_
_atom_site_label
_atom_site_type_symbol
_atom_site_fract_x
_atom_site_fract_y
_atom_site_fract_z
_atom_site_charge
Zn         Zn      0.03981   0.73549   0.41429   0.98223
Zn         Zn      0.30319   0.67715   0.26443   0.98171
Zn         Zn      0.62560   0.58552   0.32155   0.98301
Zn         Zn      0.96018   0.26450   0.58570   0.98221
Zn         Zn      0.69679   0.32285   0.73557   0.98170
Zn         Zn      0.37439   0.41448   0.67844   0.98307
H          H       0.87886   0.02319   0.56343   0.14030
H          H       0.85582   0.54115   0.97735   0.13981
H          H       0.31520   0.43621   0.45934   0.13987
H          H       0.12112   0.97681   0.43656   0.14034
H          H       0.14416   0.45885   0.02264   0.13983
H          H       0.68479   0.56379   0.54066   0.13990
C          C       0.70286   0.83090   0.42908   0.62821
C          C       0.58913   0.91410   0.46406  -0.14839
C          C       0.36943   0.89953   0.42762   0.30500
C          C       0.71212   0.01332   0.53587  -0.19399
C          C       0.87176   0.59714   0.16874   0.62677
C          C       0.67487   0.54947   0.08578  -0.14831
C          C       0.46966   0.52710   0.10009   0.30531
C          C       0.69886   0.52306   0.98697  -0.19349
C          C       0.27394   0.57051   0.40208   0.63167
C          C       0.12512   0.53572   0.45014  -0.15068
C          C       0.94197   0.57235   0.47224   0.30558
C          C       0.17611   0.46393   0.47720  -0.19380
C          C       0.29713   0.16909   0.57091   0.62808
C          C       0.41085   0.08589   0.53593  -0.14833
C          C       0.63055   0.10047   0.57237   0.30493
C          C       0.28787   0.98668   0.46412  -0.19402
C          C       0.12823   0.40286   0.83125   0.62673
C          C       0.32511   0.45052   0.91421  -0.14826
C          C       0.53033   0.47289   0.89991   0.30533
C          C       0.30113   0.47693   0.01302  -0.19352
C          C       0.72605   0.42949   0.59791   0.63167
C          C       0.87487   0.46428   0.54985  -0.15080
C          C       0.05803   0.42765   0.52775   0.30574
C          C       0.82388   0.53607   0.52279  -0.19366
O          O       0.89193   0.84973   0.47749  -0.50651
O          O       0.61491   0.74222   0.34829  -0.60961
O          O       0.23222   0.80686   0.36121  -0.59871
O          O       0.04234   0.62661   0.15009  -0.50617
O          O       0.87236   0.60468   0.25703  -0.60842
O          O       0.42472   0.55247   0.19240  -0.59734
O          O       0.41487   0.52218   0.37242  -0.50728
O          O       0.26661   0.65124   0.39446  -0.60951
O          O       0.87125   0.63875   0.44633  -0.59740
O          O       0.10805   0.15026   0.52250  -0.50645
O          O       0.38507   0.25778   0.65170  -0.60950
O          O       0.76777   0.19314   0.63878  -0.59865
O          O       0.95764   0.37338   0.84991  -0.50619
O          O       0.12763   0.39532   0.74296  -0.60835
O          O       0.57526   0.44752   0.80759  -0.59738
O          O       0.58512   0.47782   0.62758  -0.50713
O          O       0.73338   0.34876   0.60554  -0.60957
O          O       0.12874   0.36124   0.55367  -0.59759

