data_crystal

_audit_creation_method 'AiiDA-DDEC plugin'

_cell_length_a         7.59774
_cell_length_b         6.98183
_cell_length_c        11.19753

_cell_angle_alpha     71.23435
_cell_angle_beta     94.25548
_cell_angle_gamma     114.14107

_symmetry_space_group_name_Hall 'P 1'
_symmetry_space_group_name_H-M  'P 1'

loop_
_symmetry_equiv_pos_as_xyz
 'x,y,z'

loop_
_atom_site_label
_atom_site_type_symbol
_atom_site_fract_x
_atom_site_fract_y
_atom_site_fract_z
_atom_site_charge
Ni         Ni      0.47721   0.77185   0.50105   0.51061
Ni         Ni      0.02789   0.34205   0.49279   0.48814
H          H       0.41985   0.43220   0.75740   0.08829
H          H       0.60654   0.12998   0.62816   0.09238
H          H       0.41148   0.43399   0.97743   0.10732
H          H       0.62346   0.16420   0.83832   0.11647
H          H       0.53532   0.47969   0.15392   0.11861
H          H       0.51192   0.12343   0.02503   0.10708
H          H       0.52856   0.47822   0.36961   0.09996
H          H       0.48933   0.10872   0.24582   0.10017
H          H       0.31487   0.12957   0.59154   0.07178
H          H       0.89760   0.21817   0.25355   0.09498
H          H       0.11549   0.80870   0.35766   0.08959
H          H       0.88007   0.42105   0.03343   0.11468
H          H       0.09823   0.03984   0.14513   0.12334
H          H       0.92314   0.62519   0.84596   0.10915
H          H       0.05140   0.20830   0.96861   0.09987
H          H       0.95801   0.86976   0.62813   0.09264
H          H       0.04241   0.42889   0.74371   0.10329
H          H       0.84379   0.73933   0.42983   0.00484
C          C       0.45392   0.59322   0.77904   0.07124
C          C       0.55542   0.97925   0.70624   0.06557
C          C       0.46143   0.59624   0.90152  -0.18910
C          C       0.56884   0.99371   0.82847  -0.16880
C          C       0.51589   0.79423   0.93244   0.08312
C          C       0.51861   0.79788   0.06303   0.08659
C          C       0.52539   0.61459   0.16790  -0.18429
C          C       0.51143   0.97676   0.09401  -0.19070
C          C       0.52215   0.62176   0.28937   0.06664
C          C       0.50576   0.97548   0.21700   0.07212
C          C       0.26911   0.08892   0.50065   0.37874
C          C       0.93868   0.40455   0.22490   0.05303
C          C       0.06479   0.73483   0.28171   0.08569
C          C       0.93164   0.51927   0.09967  -0.19235
C          C       0.04637   0.86095   0.16378  -0.19306
C          C       0.98772   0.75672   0.06615   0.07710
C          C       0.98854   0.89013   0.93268   0.07036
C          C       0.95343   0.80317   0.83025  -0.17264
C          C       0.03156   0.12543   0.89562  -0.18901
C          C       0.97751   0.94015   0.70699   0.06153
C          C       0.03998   0.25549   0.77290   0.06301
C          C       0.77987   0.59716   0.51765   0.46616
N          N       0.50138   0.78089   0.67928  -0.24091
N          N       0.50552   0.79946   0.31775  -0.25896
N          N       0.01242   0.51215   0.31877  -0.24471
N          N       0.02329   0.16583   0.67789  -0.26273
O          O       0.36972   0.00449   0.43707  -0.51845
O          O       0.14740   0.16149   0.42855  -0.43245
O          O       0.87622   0.47838   0.56593  -0.51145
O          O       0.61916   0.56866   0.55874  -0.48449

