data_crystal

_audit_creation_method 'AiiDA-DDEC plugin'

_cell_length_a         6.66173
_cell_length_b        13.26404
_cell_length_c        13.25222

_cell_angle_alpha     51.01834
_cell_angle_beta     86.04184
_cell_angle_gamma     87.01870

_symmetry_space_group_name_Hall 'P 1'
_symmetry_space_group_name_H-M  'P 1'

loop_
_symmetry_equiv_pos_as_xyz
 'x,y,z'

loop_
_atom_site_label
_atom_site_type_symbol
_atom_site_fract_x
_atom_site_fract_y
_atom_site_fract_z
_atom_site_charge
Co         Co      0.25225   0.03462   0.96578   0.62392
Co         Co      0.74915   0.96510   0.03773   0.62372
H          H       0.31838   0.01557   0.57805   0.13132
H          H       0.29885   0.07047   0.17835   0.11254
H          H       0.73302   0.86546   0.33415   0.12600
H          H       0.18324   0.41975   0.98768   0.13231
H          H       0.20731   0.82157   0.92954   0.11401
H          H       0.75602   0.66814   0.14053   0.12610
H          H       0.68195   0.98714   0.42359   0.13155
H          H       0.70173   0.93078   0.82427   0.11255
H          H       0.26790   0.13548   0.66895   0.12588
H          H       0.81660   0.57739   0.01952   0.13193
H          H       0.79330   0.17711   0.07527   0.11361
H          H       0.24472   0.33114   0.86424   0.12646
C          C       0.17608   0.01131   0.54485  -0.24448
C          C       0.18093   0.99495   0.45127   0.22368
C          C       0.00887   0.98391   0.40341  -0.00417
C          C       0.01663   0.97005   0.30238  -0.02529
C          C       0.16144   0.01886   0.19964  -0.05030
C          C       0.87188   0.91380   0.27961  -0.04762
C          C       0.32518   0.45359   0.99261  -0.24641
C          C       0.31911   0.54697   0.00918   0.22562
C          C       0.48984   0.59641   0.02049  -0.00405
C          C       0.48105   0.69815   0.03337  -0.02595
C          C       0.34061   0.80073   0.98240  -0.05013
C          C       0.62127   0.72203   0.09055  -0.04689
C          C       0.82425   0.99122   0.45689  -0.24565
C          C       0.81933   0.00786   0.55021   0.22426
C          C       0.99139   0.01839   0.59851  -0.00416
C          C       0.98389   0.03150   0.70009  -0.02601
C          C       0.83937   0.98215   0.80308  -0.04918
C          C       0.12905   0.08708   0.72342  -0.04775
C          C       0.67467   0.54361   0.01450  -0.24602
C          C       0.68076   0.45005  -0.00177   0.22537
C          C       0.51006   0.40109   0.98626  -0.00368
C          C       0.51920   0.30026   0.97212  -0.02670
C          C       0.66011   0.19806   0.02230  -0.05011
C          C       0.37949   0.27712   0.91410  -0.04591
N          N       0.10484   0.99464   0.12081  -0.19251
N          N       0.92593   0.92879   0.17046  -0.20195
N          N       0.39558   0.88042   0.00632  -0.19265
N          N       0.56883   0.83149   0.07415  -0.20299
N          N       0.89643   0.00556   0.88247  -0.19277
N          N       0.07541   0.07129   0.83300  -0.20147
N          N       0.60573   0.11916   0.99736  -0.19209
N          N       0.43259   0.16830   0.92942  -0.20372
F          F       0.36728   0.98666   0.40485  -0.13996
F          F       0.13220   0.59167   0.01720  -0.14067
F          F       0.63313   0.01739   0.59555  -0.13912
F          F       0.86750   0.40473   0.99102  -0.14048

