data_crystal

_audit_creation_method 'AiiDA-DDEC plugin'

_cell_length_a         8.53298
_cell_length_b         8.48733
_cell_length_c        11.62080

_cell_angle_alpha     66.29872
_cell_angle_beta     66.26723
_cell_angle_gamma     73.26642

_symmetry_space_group_name_Hall 'P 1'
_symmetry_space_group_name_H-M  'P 1'

loop_
_symmetry_equiv_pos_as_xyz
 'x,y,z'

loop_
_atom_site_label
_atom_site_type_symbol
_atom_site_fract_x
_atom_site_fract_y
_atom_site_fract_z
_atom_site_charge
Cd         Cd      0.74797   0.11531   0.49450   0.81984
Cd         Cd      0.88435   0.25474   0.00609   0.82281
Cd         Cd      0.25110   0.88462   0.50626   0.81980
Cd         Cd      0.11452   0.74497   0.99478   0.82297
Cd         Cd      0.93925   0.06048   0.75084   0.75929
Cd         Cd      0.05988   0.93940   0.24988   0.75892
H          H       0.39571   0.32023   0.43704   0.10163
H          H       0.39496   0.55100   0.36392   0.08045
H          H       0.35924   0.33376   0.65705   0.08803
H          H       0.19250   0.48546   0.59706   0.10560
H          H       0.67873   0.61862   0.05282   0.10251
H          H       0.44978   0.61669   0.12954   0.07887
H          H       0.66152   0.63733   0.83834   0.08709
H          H       0.50997   0.80858   0.89329   0.10425
H          H       0.60340   0.67978   0.56382   0.10182
H          H       0.60415   0.44900   0.63695   0.08030
H          H       0.63991   0.66622   0.34381   0.08831
H          H       0.80662   0.51449   0.40384   0.10656
H          H       0.32023   0.38110   0.94778   0.10220
H          H       0.54917   0.38313   0.87111   0.07868
H          H       0.33731   0.36240   0.16231   0.08724
H          H       0.48891   0.19117   0.10736   0.10390
C          C       0.42705   0.43341   0.44189  -0.02425
C          C       0.33248   0.45329   0.57799  -0.03706
C          C       0.56620   0.58164   0.05228  -0.02355
C          C       0.54336   0.66721   0.91680  -0.03568
C          C       0.57206   0.56659   0.55897  -0.02281
C          C       0.66664   0.54668   0.42288  -0.03989
C          C       0.43270   0.41812   0.94836  -0.02335
C          C       0.45550   0.33253   0.08385  -0.03515
Cl         Cl      0.63600   0.09020   0.73803  -0.40625
Cl         Cl      0.79389   0.97324   0.02442  -0.45271
Cl         Cl      0.69921   0.00558   0.34299  -0.43845
Cl         Cl      0.90960   0.36541   0.76275  -0.40487
Cl         Cl      0.02738   0.20623   0.47703  -0.44985
Cl         Cl      0.99507   0.30066   0.15792  -0.43733
Cl         Cl      0.36309   0.90962   0.26275  -0.40591
Cl         Cl      0.20507   0.02651   0.97638  -0.45277
Cl         Cl      0.29998   0.99443   0.65767  -0.43872
Cl         Cl      0.08950   0.63440   0.23805  -0.40471
Cl         Cl      0.97171   0.79367   0.52369  -0.44980
Cl         Cl      0.00400   0.69940   0.84267  -0.43714
O          O       0.61412   0.40431   0.41325  -0.21888
O          O       0.59740   0.39238   0.08726  -0.22085
O          O       0.38498   0.59568   0.58763  -0.21952
O          O       0.40143   0.60736   0.91344  -0.22156

