data_crystal

_audit_creation_method 'AiiDA-DDEC plugin'

_cell_length_a         4.41191
_cell_length_b         7.17736
_cell_length_c         8.53552

_cell_angle_alpha     88.88218
_cell_angle_beta     114.10784
_cell_angle_gamma     115.33864

_symmetry_space_group_name_Hall 'P 1'
_symmetry_space_group_name_H-M  'P 1'

loop_
_symmetry_equiv_pos_as_xyz
 'x,y,z'

loop_
_atom_site_label
_atom_site_type_symbol
_atom_site_fract_x
_atom_site_fract_y
_atom_site_fract_z
_atom_site_charge
Zn         Zn      0.50140   0.00860   0.52246   1.03678
Zn         Zn      0.00164   0.50869   0.52309   1.05206
H          H       0.58790   0.18835   0.03994   0.13477
H          H       0.41547   0.82919   0.00543   0.13393
C          C       0.54326   0.32688   0.03066  -0.08136
C          C       0.40357   0.37353   0.13258  -0.09198
C          C       0.35623   0.55718   0.12681  -0.02260
C          C       0.41093   0.66323   0.29347   0.58569
C          C       0.31221   0.22600   0.25085   0.58489
C          C       0.46019   0.69069   0.01472  -0.08212
C          C       0.59987   0.64405   0.91280  -0.08802
C          C       0.64728   0.46039   0.91859  -0.02438
C          C       0.59262   0.35439   0.75192   0.58598
C          C       0.69137   0.79166   0.79458   0.58317
O          O      -0.00400   0.10805   0.23179  -0.43284
O          O       0.61915   0.22733   0.37927  -0.59239
O          O       0.24626   0.77002   0.29704  -0.53127
O          O       0.66763   0.65501   0.43208  -0.59646
O          O       0.00760   0.90958   0.81367  -0.43153
O          O       0.38445   0.79038   0.66615  -0.59310
O          O       0.75730   0.24769   0.74818  -0.53110
O          O       0.33598   0.36272   0.61335  -0.59808

