data_crystal

_audit_creation_method 'AiiDA-DDEC plugin'

_cell_length_a         6.70770
_cell_length_b        13.30944
_cell_length_c        13.63308

_cell_angle_alpha     120.93864
_cell_angle_beta     97.28645
_cell_angle_gamma     98.14983

_symmetry_space_group_name_Hall 'P 1'
_symmetry_space_group_name_H-M  'P 1'

loop_
_symmetry_equiv_pos_as_xyz
 'x,y,z'

loop_
_atom_site_label
_atom_site_type_symbol
_atom_site_fract_x
_atom_site_fract_y
_atom_site_fract_z
_atom_site_charge
Co         Co      0.97069   0.94744   0.96181   0.64872
Co         Co      0.48706   0.97446   0.47547   0.63874
Co         Co      0.47981   0.45842   0.98168   0.64437
H          H       0.05996   0.93904   0.73581   0.10284
H          H       0.52946   0.96770   0.86715   0.08378
H          H       0.35784  -0.00012   0.71215   0.08916
H          H       0.88769   0.18459  -0.00030   0.09526
H          H       0.43613   0.07806   0.02339   0.09470
H          H       0.63642   0.26696   0.04774   0.09201
H          H       0.89892   0.98302   0.19961   0.10316
H          H       0.40760   0.91896   0.05071   0.08176
H          H       0.60079   0.92391   0.22715   0.09060
H          H       0.06292   0.72314   0.94895   0.09614
H          H       0.50476   0.80576   0.88697   0.09899
H          H       0.31447   0.62998   0.88805   0.09693
C          C       0.80866   0.97253   0.64684   0.10831
C          C       0.90389   0.95419   0.73208   0.04229
C          C       0.61047   0.96963   0.80430   0.03678
C          C       0.51565   0.98741   0.71915   0.07238
C          C       0.90662   0.97402   0.55730   0.24040
C          C       0.16504   0.30268   0.01536   0.10801
C          C       0.05449   0.20118   0.00793   0.04214
C          C       0.35718   0.14318   0.02231   0.04493
C          C       0.46843   0.24754   0.03583   0.07036
C          C       0.06413   0.38572  -0.00018   0.24598
C          C       0.15769   0.96413   0.29838   0.11376
C          C       0.05423   0.96704   0.20433   0.03743
C          C       0.33758   0.93411   0.12318   0.03769
C          C       0.44280   0.93497   0.21885   0.07617
C          C       0.06428   0.97380   0.39319   0.24074
C          C       0.79024   0.60854   0.94066   0.11035
C          C       0.89623   0.70436   0.93701   0.03735
C          C       0.58850   0.74954   0.90254   0.04986
C          C       0.48220   0.65205   0.90317   0.07042
C          C       0.89545   0.53131   0.96466   0.24722
N          N       0.61369   0.98896   0.64042  -0.18839
N          N       0.80563   0.95340   0.81195  -0.18783
N          N       0.78016   0.97527   0.47103  -0.12667
N          N       0.10770   0.97730   0.56613  -0.15604
N          N       0.37288   0.32589   0.02873  -0.19118
N          N       0.14890   0.11889   0.00754  -0.18073
N          N       0.18684   0.46564   0.98501  -0.13329
N          N       0.86371   0.37768  -0.00056  -0.16277
N          N       0.35365   0.95015   0.30654  -0.18694
N          N       0.14357   0.95157   0.11589  -0.18960
N          N       0.19286   0.97980   0.48248  -0.12669
N          N       0.86369   0.97316   0.38584  -0.15490
N          N       0.58298   0.58400   0.92626  -0.18940
N          N       0.79676   0.77824   0.92281  -0.17754
N          N       0.77436   0.45392   0.98262  -0.12965
N          N       0.09626   0.54041   0.96630  -0.16404
Cl         Cl      0.56665   0.17025   0.54855  -0.37119
Cl         Cl      0.38112   0.30124   0.79778  -0.37479
Cl         Cl      0.39871   0.78018   0.39800  -0.35978
Cl         Cl      0.58387   0.61746   0.16480  -0.36890
Cl         Cl      0.75854   0.05355   0.08322  -0.48250
Cl         Cl      0.17782   0.84044   0.83888  -0.48693

