data_crystal

_audit_creation_method 'AiiDA-DDEC plugin'

_cell_length_a         4.48184
_cell_length_b         9.75596
_cell_length_c        12.01366

_cell_angle_alpha     105.58184
_cell_angle_beta     108.03094
_cell_angle_gamma     87.57481

_symmetry_space_group_name_Hall 'P 1'
_symmetry_space_group_name_H-M  'P 1'

loop_
_symmetry_equiv_pos_as_xyz
 'x,y,z'

loop_
_atom_site_label
_atom_site_type_symbol
_atom_site_fract_x
_atom_site_fract_y
_atom_site_fract_z
_atom_site_charge
Mn         Mn     -0.00014  -0.00011   0.00433   0.87830
H          H       0.06245   0.28629   0.84774   0.10670
H          H       0.33946   0.51584   0.87894   0.11647
H          H       0.31359   0.83792   0.79222   0.09960
H          H       0.35194   0.83906   0.59247   0.11692
H          H       0.58603   0.11231   0.76635   0.08571
H          H       0.59943   0.13172   0.56628   0.12207
H          H       0.93653   0.71388   0.16079   0.10645
H          H       0.65953   0.48433   0.12959   0.11693
H          H       0.68571   0.16158   0.21600   0.09982
H          H       0.64790   0.16082   0.41593   0.11776
H          H       0.41391   0.88753   0.24214   0.08608
H          H       0.40082   0.86837   0.44230   0.12206
C          C       0.04219   0.37889   0.91864  -0.20020
C          C       0.49229   0.20853   0.01066   0.42105
C          C       0.20859   0.50624   0.93909  -0.16204
C          C       0.98729   0.99352   0.56193   0.06656
C          C       0.84222   0.36979   0.98556   0.22811
C          C       0.15133   0.89841   0.73772   0.09606
C          C       0.19376   0.91013   0.62986  -0.16664
C          C       0.73090   0.04398   0.71920   0.08384
C          C       0.75976   0.06221   0.61046  -0.18818
C          C       0.95681   0.62128   0.08989  -0.19943
C          C       0.50675   0.79152  -0.00222   0.42059
C          C       0.79041   0.49392   0.06944  -0.16231
C          C       0.01274   0.00645   0.44656   0.06769
C          C       0.15677   0.63038   0.02296   0.22847
C          C       0.84825   0.10127   0.27061   0.09596
C          C       0.80614   0.08975   0.37857  -0.16765
C          C       0.26899   0.95586   0.28925   0.08178
C          C       0.24032   0.93778   0.39805  -0.18787
N          N       0.93308   0.96546   0.78456  -0.23712
N          N       0.33339   0.14926   0.04953  -0.63897
N          N       0.69992   0.23832   0.96744  -0.39015
N          N       0.06650   0.03419   0.22378  -0.23588
N          N       0.66563   0.85074   0.95887  -0.63784
N          N       0.29906   0.76185   0.04104  -0.39071

