data_crystal

_audit_creation_method 'AiiDA-DDEC plugin'

_cell_length_a         5.31109
_cell_length_b         6.63890
_cell_length_c        14.30783

_cell_angle_alpha     89.98917
_cell_angle_beta     90.01030
_cell_angle_gamma     61.20260

_symmetry_space_group_name_Hall 'P 1'
_symmetry_space_group_name_H-M  'P 1'

loop_
_symmetry_equiv_pos_as_xyz
 'x,y,z'

loop_
_atom_site_label
_atom_site_type_symbol
_atom_site_fract_x
_atom_site_fract_y
_atom_site_fract_z
_atom_site_charge
Mn         Mn      0.60363   0.66285   0.36154   1.32250
Mn         Mn      0.85111   0.90536   0.86111   1.32428
Mn         Mn      0.35116   0.40540   0.64917   1.32442
Mn         Mn      0.10369   0.16285   0.14865   1.32252
P          P       0.97409   0.90627   0.33016   1.20978
P          P       0.47985   0.66218   0.83120   1.21207
P          P       0.97985   0.16221   0.67908   1.21125
P          P       0.47411   0.40634   0.18003   1.21037
H          H       0.78629   0.09663   0.38327  -0.04899
H          H       0.66721   0.47301   0.88501  -0.04983
H          H       0.16691   0.97306   0.62527  -0.04959
H          H       0.28629   0.59679   0.12690  -0.04937
C          C       0.88498   0.65482   0.52523   0.46672
C          C       0.57061   0.91383   0.02518   0.46730
C          C       0.07054   0.41388   0.48508   0.46725
C          C       0.38509   0.15482   0.98500   0.46676
O          O       0.10524   0.98326   0.25130  -0.69292
O          O       0.22283   0.74059   0.39623  -0.68722
O          O       0.81139   0.78368   0.29316  -0.66473
O          O       0.65173   0.78567   0.48081  -0.46176
O          O       0.97154   0.70809   0.59758  -0.44403
O          O       0.34950   0.58329   0.75278  -0.69521
O          O       0.23064   0.82959   0.89672  -0.68762
O          O       0.64303   0.78399   0.79378  -0.66453
O          O       0.80301   0.78276   0.98045  -0.46229
O          O       0.48489   0.86086   0.09783  -0.44348
O          O       0.84949   0.08332   0.75749  -0.69486
O          O       0.73055   0.32989   0.61357  -0.68762
O          O       0.14332   0.28380   0.71649  -0.66409
O          O       0.30304   0.28284   0.52983  -0.46265
O          O       0.98475   0.36091   0.41246  -0.44338
O          O       0.60524   0.48320   0.25895  -0.69291
O          O       0.72277   0.24080   0.11396  -0.68744
O          O       0.31146   0.28369   0.21699  -0.66481
O          O       0.15184   0.28565   0.02937  -0.46183
O          O       0.47165   0.20812   0.91268  -0.44404

