data_crystal

_audit_creation_method 'AiiDA-DDEC plugin'

_cell_length_a         7.58903
_cell_length_b         9.11303
_cell_length_c         9.68730

_cell_angle_alpha     118.06805
_cell_angle_beta     113.05504
_cell_angle_gamma     89.98882

_symmetry_space_group_name_Hall 'P 1'
_symmetry_space_group_name_H-M  'P 1'

loop_
_symmetry_equiv_pos_as_xyz
 'x,y,z'

loop_
_atom_site_label
_atom_site_type_symbol
_atom_site_fract_x
_atom_site_fract_y
_atom_site_fract_z
_atom_site_charge
Cu         Cu     -0.00000   0.00005   0.00002   0.60791
Cu         Cu      0.49999   0.00005   0.00001   0.60961
H          H       0.21122   0.01107   0.35254   0.11809
H          H       0.28885   0.65856   0.64762   0.11812
H          H       0.35940   0.99160   0.64878   0.11840
H          H       0.14065   0.34275   0.35141   0.11721
H          H       0.78877   0.98903   0.64749   0.11802
H          H       0.71114   0.34153   0.35241   0.11816
H          H       0.64058   0.00847   0.35122   0.11844
H          H       0.85934   0.65735   0.64862   0.11726
C          C       0.05853   0.00833   0.32584  -0.06823
C          C       0.44151   0.68255   0.67424  -0.06800
C          C       0.23308   0.99310   0.67487  -0.06772
C          C       0.26694   0.31818   0.32526  -0.06648
C          C       0.94146   0.99177   0.67418  -0.06781
C          C       0.55848   0.31754   0.32579  -0.06844
C          C       0.76690   0.00698   0.32515  -0.06781
C          C       0.73305   0.68192   0.67477  -0.06665
C          C       0.95996   0.00279   0.41994  -0.01515
C          C       0.54004   0.58289   0.58008  -0.01647
C          C       0.04002  -0.00271   0.58008  -0.01527
C          C       0.45995   0.41720   0.41995  -0.01630
N          N       0.93276   0.01544   0.18542  -0.19331
N          N       0.56725   0.83012   0.81460  -0.19665
N          N       0.24767   0.98551   0.81502  -0.19708
N          N       0.25234   0.17039   0.18509  -0.19190
N          N       0.06723   0.98466   0.81461  -0.19332
N          N       0.43274   0.16998   0.18543  -0.19625
N          N       0.75231   0.01458   0.18500  -0.19667
N          N       0.74765   0.82971   0.81494  -0.19172

