data_crystal

_audit_creation_method 'AiiDA-DDEC plugin'

_cell_length_a        11.80416
_cell_length_b        10.11922
_cell_length_c        11.83706

_cell_angle_alpha     64.18872
_cell_angle_beta     87.77093
_cell_angle_gamma     83.77799

_symmetry_space_group_name_Hall 'P 1'
_symmetry_space_group_name_H-M  'P 1'

loop_
_symmetry_equiv_pos_as_xyz
 'x,y,z'

loop_
_atom_site_label
_atom_site_type_symbol
_atom_site_fract_x
_atom_site_fract_y
_atom_site_fract_z
_atom_site_charge
Mn         Mn      0.73310   0.83463   0.36872   1.24601
Mn         Mn      0.23534   0.20096   0.63102   1.24518
H          H       0.90174   0.18244   0.50940   0.14146
H          H       0.10261   0.46685   0.20896   0.13999
H          H       0.82396   0.27219   0.12882   0.13889
H          H       0.58954   0.32262   0.56026   0.13721
H          H       0.43569   0.21777   0.28852   0.14889
H          H       0.63909   0.58931   0.16813   0.14070
H          H       0.09129   0.88162   0.43983   0.13711
H          H       0.93356   0.50734   0.71181   0.14874
H          H       0.13960   0.75558   0.83196   0.13749
H          H       0.40270   0.69022   0.49008   0.14087
H          H       0.60434   0.67471   0.79092   0.13968
H          H       0.32639   0.39912   0.87141   0.13793
C          C       0.85239   0.21883   0.32337  -0.02681
C          C       0.91885   0.23932   0.40955  -0.05069
C          C       0.01097   0.32460   0.36809   0.00121
C          C       0.03102   0.40060   0.24033  -0.08147
C          C       0.96118   0.38636   0.15209   0.12310
C          C       0.87357   0.29061   0.19523  -0.12064
C          C       0.76551   0.10974   0.37613   0.55817
C          C       0.09789   0.31601   0.45924   0.56297
C          C       0.98436   0.46278   0.02382  -0.04095
C          C       0.62242   0.46463   0.36755  -0.02764
C          C       0.57438   0.34489   0.46322  -0.02213
C          C       0.50655   0.25703   0.43448   0.00792
C          C       0.48815   0.28565   0.31052  -0.11414
C          C       0.53552   0.40667   0.21314   0.13926
C          C       0.60396   0.49546   0.24297  -0.10820
C          C       0.68557   0.55921   0.40686   0.56161
C          C       0.44911   0.13756   0.53780   0.58097
C          C       0.51067   0.44586   0.08718  -0.05362
C          C       0.12375   0.83041   0.63258  -0.02865
C          C       0.07559   0.80689   0.53692  -0.01984
C          C       0.00660   0.69120   0.56576   0.00762
C          C       0.98719   0.59617   0.68981  -0.11521
C          C       0.03470   0.61926   0.78715   0.13992
C          C       0.10433   0.73694   0.75722  -0.10592
C          C       0.18715   0.96442   0.59308   0.56215
C          C       0.94852   0.67650   0.46215   0.58035
C          C       0.00900   0.53319   0.91295  -0.05423
C          C       0.35420   0.54023   0.67645  -0.02627
C          C       0.42023   0.64715   0.59004  -0.05033
C          C       0.51239   0.69114   0.63161   0.00439
C          C       0.53283   0.63957   0.75942  -0.08291
C          C       0.46326   0.53710   0.84772   0.12539
C          C       0.37571   0.48406   0.80472  -0.12080
C          C       0.26711   0.48390   0.62388   0.55938
C          C       0.59844   0.77444   0.54078   0.55971
C          C       0.48643   0.48578   0.97610  -0.04073
O          O       0.74293   0.04396   0.30649  -0.55347
O          O       0.72377   0.08538   0.48021  -0.41981
O          O       0.07593   0.24809   0.57922  -0.50080
O          O       0.19583   0.35508   0.42444  -0.50138
O          O       0.70999   0.68566   0.31500  -0.54738
O          O       0.70530   0.52048   0.51921  -0.49818
O          O       0.39614   0.18322   0.61718  -0.55768
O          O       0.45247   0.01302   0.54363  -0.40624
O          O       0.21364   0.99708   0.68483  -0.54857
O          O       0.20497   0.04019   0.48071  -0.49719
O          O       0.89431   0.80287   0.38221  -0.55748
O          O       0.95246   0.55772   0.45657  -0.40375
O          O       0.24671   0.34676   0.69340  -0.55139
O          O       0.22336   0.56555   0.51981  -0.41903
O          O       0.57476   0.82879   0.42073  -0.50003
O          O       0.69688   0.77758   0.57593  -0.50070

