data_crystal

_audit_creation_method 'AiiDA-DDEC plugin'

_cell_length_a         8.49107
_cell_length_b         9.92752
_cell_length_c        10.15861

_cell_angle_alpha     71.21080
_cell_angle_beta     78.68447
_cell_angle_gamma     51.90410

_symmetry_space_group_name_Hall 'P 1'
_symmetry_space_group_name_H-M  'P 1'

loop_
_symmetry_equiv_pos_as_xyz
 'x,y,z'

loop_
_atom_site_label
_atom_site_type_symbol
_atom_site_fract_x
_atom_site_fract_y
_atom_site_fract_z
_atom_site_charge
La         La      0.24448   0.00847   0.99717   1.93367
La         La      0.75556   0.99152   0.00283   1.93358
H          H       0.12169   0.31833   0.33693   0.13199
H          H       0.31088   0.08920   0.39544   0.13151
H          H       0.57128   0.14271   0.28320   0.07407
H          H       0.44447   0.22904   0.42764   0.09258
H          H       0.21281   0.52932   0.27127   0.07941
H          H       0.33331   0.44830   0.12342   0.09882
H          H       0.65329   0.36666   0.18854   0.14112
H          H       0.54407   0.44671   0.33929   0.11610
H          H       0.78371   0.21310   0.62746   0.13182
H          H       0.95259   0.25572   0.52548   0.12189
H          H       0.04420   0.88675   0.65180   0.09549
H          H       0.20721   0.92774   0.54364   0.07759
H          H       0.87833   0.68170   0.66305   0.13228
H          H       0.68913   0.91082   0.60456   0.13147
H          H       0.42875   0.85729   0.71681   0.07394
H          H       0.55556   0.77097   0.57236   0.09265
H          H       0.78723   0.47068   0.72872   0.07951
H          H       0.66674   0.55170   0.87657   0.09881
H          H       0.34676   0.63333   0.81146   0.14100
H          H       0.45598   0.55327   0.66072   0.11615
H          H       0.21633   0.78688   0.37254   0.13191
H          H       0.04744   0.74427   0.47453   0.12180
H          H       0.95585   0.11323   0.34819   0.09561
H          H       0.79283   0.07226   0.45636   0.07741
C          C       0.26294   0.17840   0.18147   0.66553
C          C       0.27380   0.21011   0.31418  -0.29421
C          C       0.42452   0.24502   0.31844  -0.12775
C          C       0.35788   0.42973   0.23190  -0.13791
C          C       0.51174   0.46298   0.23358  -0.29677
C          C       0.44435   0.64523   0.14647   0.62607
C          C       0.03378   0.12072   0.73874   0.65220
C          C       0.94243   0.15766   0.60738  -0.31141
C          C       0.04841   0.98441   0.56436  -0.13302
C          C       0.73709   0.82160   0.81853   0.66540
C          C       0.72622   0.78990   0.68581  -0.29411
C          C       0.57551   0.75499   0.68156  -0.12795
C          C       0.64216   0.57027   0.76810  -0.13787
C          C       0.48831   0.53701   0.76643  -0.29684
C          C       0.55571   0.35476   0.85354   0.62597
C          C       0.96627   0.87926   0.26126   0.65255
C          C       0.05761   0.84232   0.39262  -0.31132
C          C       0.95164   0.01557   0.43563  -0.13314
O          O       0.09985   0.21686   0.14922  -0.59831
O          O       0.42092   0.10041   0.10617  -0.71487
O          O       0.46234   0.74209   0.19151  -0.63543
O          O       0.36247   0.70480   0.02758  -0.61360
O          O       0.13992   0.17049   0.73960  -0.59815
O          O       0.00944   0.02809   0.85344  -0.70839
O          O       0.90019   0.78313   0.85078  -0.59797
O          O       0.57911   0.89960   0.89383  -0.71511
O          O       0.53769   0.25791   0.80851  -0.63525
O          O       0.63763   0.29518   0.97241  -0.61365
O          O       0.86011   0.82950   0.26040  -0.59851
O          O       0.99063   0.97187   0.14656  -0.70840

