data_crystal

_audit_creation_method 'AiiDA-DDEC plugin'

_cell_length_a         5.67987
_cell_length_b         6.58383
_cell_length_c         8.70938

_cell_angle_alpha     93.06329
_cell_angle_beta     107.74867
_cell_angle_gamma     74.94990

_symmetry_space_group_name_Hall 'P 1'
_symmetry_space_group_name_H-M  'P 1'

loop_
_symmetry_equiv_pos_as_xyz
 'x,y,z'

loop_
_atom_site_label
_atom_site_type_symbol
_atom_site_fract_x
_atom_site_fract_y
_atom_site_fract_z
_atom_site_charge
Ni         Ni      0.99415   0.50109   0.99289   0.94897
Ni         Ni      0.48864   0.00204   0.99283   0.96576
H          H       0.30532   0.88927   0.48708   0.13849
H          H       0.68426   0.11710   0.49954   0.13657
C          C       0.45212   0.72655   0.78110   0.57102
C          C       0.47292   0.60642   0.63462  -0.03701
C          C       0.57668   0.38749   0.63881  -0.04389
C          C       0.38925   0.72082   0.48874  -0.09712
C          C       0.64620   0.26333   0.79293   0.60959
C          C       0.53168   0.27587   0.20518   0.57196
C          C       0.51406   0.39847   0.35136  -0.03755
C          C       0.41097   0.61770   0.34784  -0.04392
C          C       0.60070   0.28513   0.49818  -0.09596
C          C       0.33926   0.74053   0.19406   0.61130
O          O       0.24740   0.85406   0.78463  -0.46526
O          O       0.65754   0.71512   0.90494  -0.60762
O          O       0.84545   0.27634   0.90715  -0.52229
O          O       0.49885   0.15052   0.79733  -0.50631
O          O       0.73510   0.14796   0.20095  -0.46097
O          O       0.32462   0.28499   0.08317  -0.60884
O          O       0.14089   0.72510   0.07957  -0.52323
O          O       0.48528   0.85380   0.18842  -0.50370

