data_crystal

_audit_creation_method 'AiiDA-DDEC plugin'

_cell_length_a         5.72173
_cell_length_b        10.61056
_cell_length_c        12.68461

_cell_angle_alpha     82.77464
_cell_angle_beta     84.21279
_cell_angle_gamma     67.57161

_symmetry_space_group_name_Hall 'P 1'
_symmetry_space_group_name_H-M  'P 1'

loop_
_symmetry_equiv_pos_as_xyz
 'x,y,z'

loop_
_atom_site_label
_atom_site_type_symbol
_atom_site_fract_x
_atom_site_fract_y
_atom_site_fract_z
_atom_site_charge
Mn         Mn      0.24687   0.09878   0.43597   1.20201
Mn         Mn      0.47113   0.60113   0.31534   1.16989
Mn         Mn      0.71744   0.90674   0.58357   1.23143
Mn         Mn      0.49828   0.39859   0.69200   1.15786
Mn         Mn      0.03014   0.03647   0.98526   1.25992
P          P       0.52854   0.81813   0.10017   1.27125
P          P       0.63667   0.23097   0.48975   1.25855
P          P       0.49072   0.14852   0.89116   1.29241
P          P       0.33492   0.77416   0.51685   1.26588
H          H       0.73500   0.02618   0.20187   0.34119
H          H       0.91503   0.35353   0.33182   0.33772
H          H       0.41012   0.07462   0.09256   0.11588
H          H       0.66705   0.21242   0.29979   0.11827
H          H       0.30738   0.98560   0.77485   0.33731
H          H       0.06451   0.64544   0.67161   0.33849
H          H       0.66738   0.90468   0.88554   0.12885
H          H       0.32348   0.78292   0.70741   0.12289
C          C       0.39707   0.02519   0.17274  -0.07469
C          C       0.14200   0.03514   0.22118   0.57314
C          C       0.59313   0.29998   0.34804  -0.21793
C          C       0.31196   0.37361   0.33199   0.61093
C          C       0.63348   0.98965   0.82174  -0.23074
C          C       0.88786   0.97883   0.77006   0.61165
C          C       0.38959   0.69806   0.65660  -0.22050
C          C       0.67083   0.62212   0.67043   0.61243
O          O       0.35691   0.87378   0.00636  -0.70372
O          O       0.80159   0.79447   0.08238  -0.62977
O          O       0.43116   0.73815   0.18940  -0.71379
O          O       0.56492   0.01997   0.23925  -0.30336
O          O       0.97783   0.03738   0.15737  -0.51269
O          O       0.08895   0.04122   0.31984  -0.50730
O          O       0.44460   0.33959   0.55583  -0.74953
O          O       0.91024   0.19785   0.51337  -0.72659
O          O       0.57202   0.09822   0.49511  -0.77302
O          O       0.71869   0.39192   0.31917  -0.47262
O          O       0.18022   0.29738   0.34264  -0.53627
O          O       0.21873   0.50151   0.31066  -0.49813
O          O       0.66347   0.11513   0.98687  -0.74837
O          O       0.22030   0.16431   0.93015  -0.73659
O          O       0.50954   0.26809   0.81557  -0.76747
O          O       0.48279   0.98166   0.74392  -0.47225
O          O       0.05395   0.98920   0.82549  -0.51556
O          O       0.93884   0.95796   0.67299  -0.50460
O          O       0.52181   0.66987   0.44547  -0.75339
O          O       0.05878   0.81189   0.49602  -0.72727
O          O       0.40942   0.90448   0.51398  -0.76329
O          O       0.26102   0.60767   0.68497  -0.47030
O          O       0.80297   0.69812   0.66123  -0.53042
O          O       0.76241   0.49397   0.68978  -0.49780

