data_crystal

_audit_creation_method 'AiiDA-DDEC plugin'

_cell_length_a         8.02783
_cell_length_b        11.28393
_cell_length_c        11.28388

_cell_angle_alpha     114.57427
_cell_angle_beta     103.70948
_cell_angle_gamma     103.70942

_symmetry_space_group_name_Hall 'P 1'
_symmetry_space_group_name_H-M  'P 1'

loop_
_symmetry_equiv_pos_as_xyz
 'x,y,z'

loop_
_atom_site_label
_atom_site_type_symbol
_atom_site_fract_x
_atom_site_fract_y
_atom_site_fract_z
_atom_site_charge
In         In      0.34494   0.97633   0.41626   1.54612
In         In      0.36808   0.43931   0.02268   1.54633
In         In      0.92810   0.58279   0.55953   1.54455
In         In      0.42810   0.55952   0.58279   1.54452
In         In      0.84495   0.41626   0.97633   1.54608
In         In      0.86808   0.02267   0.43931   1.54640
H          H       0.21080   0.17472   0.49445   0.37989
H          H       0.03563   0.31922   0.82436   0.37972
H          H       0.71595   0.50473   0.67982   0.37930
H          H       0.21595   0.67981   0.50474   0.37896
H          H       0.71080   0.49444   0.17472   0.37880
H          H       0.53563   0.82435   0.31922   0.38000
C          C       0.60898   0.24985   0.66810   0.45579
C          C       0.57545   0.14456   0.72339   0.46583
C          C       0.35853   0.41771   0.74918   0.45355
C          C       0.43033   0.57832   0.85454   0.46874
C          C       0.94018   0.33085   0.58108   0.45563
C          C       0.85141   0.27557   0.42049   0.46768
C          C       0.44016   0.58108   0.33085   0.45563
C          C       0.35142   0.42048   0.27557   0.46757
C          C       0.10896   0.66809   0.24986   0.45569
C          C       0.07546   0.72338   0.14456   0.46590
C          C       0.85852   0.74917   0.41772   0.45354
C          C       0.93035   0.85454   0.57833   0.46875
O          O       0.14440   0.07158   0.44167  -0.91071
O          O       0.54135   0.20358   0.53685  -0.49116
O          O       0.45957   0.02005   0.63626  -0.48011
O          O       0.94530   0.24038   0.62023  -0.50409
O          O       0.81391   0.14702   0.33658  -0.46236
O          O       0.07230   0.36952   0.92749  -0.90946
O          O       0.33712   0.33268   0.79536  -0.49084
O          O       0.43892   0.61566   0.97906  -0.48236
O          O       0.70457   0.37948   0.75855  -0.50402
O          O       0.66647   0.18921   0.85192  -0.46245
O          O       0.70226   0.55757   0.62955  -0.90787
O          O       0.00378   0.46209   0.66610  -0.49111
O          O       0.82270   0.36273   0.38313  -0.48158
O          O       0.32454   0.37857   0.61955  -0.50200
O          O       0.47673   0.66221   0.80993  -0.46306
O          O       0.20226   0.62954   0.55758  -0.90755
O          O       0.50378   0.66609   0.46210  -0.49105
O          O       0.32269   0.38313   0.36273  -0.48133
O          O       0.82454   0.61954   0.37858  -0.50175
O          O       0.97672   0.80992   0.66222  -0.46278
O          O       0.64439   0.44166   0.07158  -0.90903
O          O       0.04135   0.53684   0.20358  -0.49098
O          O       0.95956   0.63626   0.02005  -0.48023
O          O       0.44530   0.62023   0.24039  -0.50439
O          O       0.31390   0.33658   0.14703  -0.46236
O          O       0.57229   0.92748   0.36953  -0.91012
O          O       0.83713   0.79535   0.33269  -0.49111
O          O       0.93892   0.97905   0.61566  -0.48258
O          O       0.20457   0.75854   0.37949  -0.50390
O          O       0.16646   0.85192   0.18921  -0.46264

