data_crystal

_audit_creation_method 'AiiDA-DDEC plugin'

_cell_length_a         8.48615
_cell_length_b        11.53274
_cell_length_c        11.53038

_cell_angle_alpha     87.27947
_cell_angle_beta     73.34299
_cell_angle_gamma     73.36009

_symmetry_space_group_name_Hall 'P 1'
_symmetry_space_group_name_H-M  'P 1'

loop_
_symmetry_equiv_pos_as_xyz
 'x,y,z'

loop_
_atom_site_label
_atom_site_type_symbol
_atom_site_fract_x
_atom_site_fract_y
_atom_site_fract_z
_atom_site_charge
Sr         Sr      0.24914   0.52530   0.47155   1.52248
Sr         Sr      0.74907   0.47666   0.52031   1.52255
Ni         Ni     -0.00071   0.50218   0.99540   0.48097
Ni         Ni      0.49926   0.00042   0.49720   0.48098
H          H       0.52391   0.70651   0.46754   0.37793
H          H       0.54380   0.64749   0.34078   0.38332
H          H       0.40080   0.72559   0.79056   0.13644
H          H       0.51682   0.73992   0.96933   0.13201
H          H       0.19815   0.52548   0.16674   0.11087
H          H       0.97240   0.53188   0.29052   0.37738
H          H       0.95181   0.65792   0.35108   0.38289
H          H       0.09913   0.20647   0.27326   0.13692
H          H       0.98165   0.02847   0.25873   0.13262
H          H       0.29895   0.82968   0.47332   0.11134
H          H       0.47238   0.29562   0.52684   0.37761
H          H       0.45175   0.35612   0.65293   0.38291
H          H       0.59966   0.27774   0.20133   0.13741
H          H       0.48212   0.26331   0.02332   0.13282
H          H       0.79881   0.47847   0.82473   0.11141
H          H       0.02396   0.47254   0.70152   0.37790
H          H       0.04378   0.34583   0.64247   0.38337
H          H       0.90073   0.79559   0.72056   0.13665
H          H       0.01668   0.97433   0.73501   0.13218
H          H       0.69779   0.17185   0.52085   0.11099
C          C       0.23080   0.62706   0.89064   0.07289
C          C       0.35417   0.68798   0.87772  -0.09149
C          C       0.41937   0.69387   0.97526  -0.04264
C          C       0.36471   0.63327   0.08025  -0.05314
C          C       0.23907   0.57494   0.08697   0.08218
C          C       0.15875   0.60279   0.79396   0.53435
C          C       0.43874   0.61813   0.18707   0.56915
C          C       0.26836   0.10567   0.37197   0.07230
C          C       0.14512   0.11920   0.31084  -0.09078
C          C       0.07915   0.02212   0.30481  -0.04387
C          C       0.13314   0.91698   0.36533  -0.05115
C          C       0.25873   0.90963   0.42390   0.08138
C          C       0.34069   0.20199   0.39649   0.53596
C          C       0.05826   0.81067   0.38000   0.56875
C          C       0.76858   0.37675   0.10062   0.07277
C          C       0.64551   0.31548   0.11410  -0.09128
C          C       0.57951   0.30951   0.01701  -0.04398
C          C       0.63327   0.37023   0.91194  -0.05120
C          C       0.75873   0.42891   0.90463   0.08138
C          C       0.84082   0.40134   0.19699   0.53545
C          C       0.55827   0.38499   0.80567   0.56840
C          C       0.73071   0.89567   0.62209   0.07314
C          C       0.85406   0.88274   0.68302  -0.09156
C          C       0.91921   0.98029   0.68899  -0.04323
C          C       0.86445   0.08532   0.62851  -0.05255
C          C       0.73879   0.09204   0.57021   0.08183
C          C       0.65871   0.79900   0.59775   0.53428
C          C       0.93842   0.19216   0.61340   0.56870
N          N       0.17106   0.57426   0.99582  -0.17181
N          N       0.32737   0.00039   0.42486  -0.17275
N          N       0.82743   0.42981   0.99538  -0.17298
N          N       0.67090   0.00086   0.56938  -0.17224
O          O       0.03982   0.54555   0.83317  -0.47528
O          O       0.20666   0.63114   0.68721  -0.50753
O          O       0.53302   0.68197   0.19694  -0.54652
O          O       0.39875   0.53672   0.25861  -0.65692
O          O       0.52756   0.63042   0.42980  -0.85507
O          O       0.45908   0.16262   0.45410  -0.47467
O          O       0.29327   0.30875   0.36809  -0.51010
O          O       0.96146   0.80261   0.31750  -0.54721
O          O       0.10004   0.73755   0.45977  -0.65754
O          O       0.96840   0.56876   0.36716  -0.85352
O          O       0.95909   0.45908   0.15762  -0.47477
O          O       0.79339   0.37293   0.30378  -0.50959
O          O       0.46150   0.32247   0.79759  -0.54717
O          O       0.59992   0.46486   0.73261  -0.65737
O          O       0.46831   0.37224   0.56375  -0.85366
O          O       0.53981   0.83821   0.54050  -0.47536
O          O       0.70661   0.69227   0.62608  -0.50756
O          O       0.03301   0.20195   0.67702  -0.54627
O          O       0.89806   0.26383   0.53219  -0.65699
O          O       0.02758   0.43483   0.62541  -0.85509

