data_crystal

_audit_creation_method 'AiiDA-DDEC plugin'

_cell_length_a         7.81499
_cell_length_b         9.16092
_cell_length_c        12.62001

_cell_angle_alpha     120.32830
_cell_angle_beta     100.25866
_cell_angle_gamma     109.52801

_symmetry_space_group_name_Hall 'P 1'
_symmetry_space_group_name_H-M  'P 1'

loop_
_symmetry_equiv_pos_as_xyz
 'x,y,z'

loop_
_atom_site_label
_atom_site_type_symbol
_atom_site_fract_x
_atom_site_fract_y
_atom_site_fract_z
_atom_site_charge
Co         Co      0.02099   0.04266   0.17988   0.79240
Co         Co      0.98705   0.95814   0.82059   0.79229
Co         Co      0.50392   0.50032   0.50015   0.94268
H          H       0.97495   0.19177   0.46858   0.12495
H          H       0.81485   0.38478   0.58491   0.11055
H          H       0.58031   0.35589   0.24806   0.12515
H          H       0.30589   0.74533   0.25020   0.13761
H          H       0.03316   0.80922   0.53199   0.12511
H          H       0.19313   0.61612   0.41557   0.11022
H          H       0.42784   0.64499   0.75238   0.12585
H          H       0.70216   0.25547   0.75022   0.13774
C          C       0.76650   0.17319   0.10754   0.20388
C          C       0.76632   0.22359   0.23620   0.12508
C          C       0.88762   0.22845   0.41887   0.07445
C          C       0.79854   0.33453   0.48331   0.02983
C          C       0.66865   0.32037   0.29769   0.03763
C          C       0.53233   0.83887   0.43228  -0.04375
C          C       0.64405   0.98494   0.57337  -0.05269
C          C       0.39216   0.85487   0.35961  -0.11751
C          C       0.56197   0.66545   0.36308   0.57798
C          C       0.78736   0.96917   0.65532   0.56297
C          C       0.24164   0.82771   0.89296   0.20413
C          C       0.24184   0.77733   0.76431   0.12580
C          C       0.12049   0.77251   0.58167   0.07457
C          C       0.20950   0.66639   0.51718   0.03023
C          C       0.33947   0.68053   0.70278   0.03556
C          C       0.47568   0.16189   0.56814  -0.04437
C          C       0.36399   0.01584   0.42706  -0.05273
C          C       0.61588   0.14591   0.64081  -0.11729
C          C       0.44601   0.33528   0.63735   0.57816
C          C       0.22067   0.03162   0.34512   0.56233
N          N       0.88236   0.09789   0.06374  -0.27058
N          N       0.85095   0.06580   0.94342  -0.07519
N          N       0.71982   0.11994   0.91694  -0.03300
N          N       0.66566   0.18867   0.01914  -0.21963
N          N       0.87376   0.17367   0.29508  -0.23875
N          N       0.68632   0.37895   0.42261  -0.20454
N          N       0.12578   0.90301   0.93677  -0.27094
N          N       0.15712   0.93501   0.05706  -0.07536
N          N       0.28820   0.88081   0.08351  -0.03244
N          N       0.34240   0.81214   0.98133  -0.22005
N          N       0.13437   0.82726   0.70546  -0.23897
N          N       0.32171   0.62192   0.57785  -0.20403
O          O       0.70234   0.67571   0.32956  -0.48517
O          O       0.42997   0.51301   0.34733  -0.59416
O          O       0.74574   0.80321   0.63291  -0.57583
O          O       0.95111   0.11808   0.75517  -0.46268
O          O       0.30575   0.32506   0.67099  -0.48534
O          O       0.57788   0.48765   0.65298  -0.59421
O          O       0.26226   0.19758   0.36754  -0.57604
O          O       0.05691   0.88271   0.24527  -0.46192

