data_crystal

_audit_creation_method 'AiiDA-DDEC plugin'

_cell_length_a         7.78456
_cell_length_b         7.81450
_cell_length_c        14.52841

_cell_angle_alpha     105.65477
_cell_angle_beta     105.59777
_cell_angle_gamma     89.73653

_symmetry_space_group_name_Hall 'P 1'
_symmetry_space_group_name_H-M  'P 1'

loop_
_symmetry_equiv_pos_as_xyz
 'x,y,z'

loop_
_atom_site_label
_atom_site_type_symbol
_atom_site_fract_x
_atom_site_fract_y
_atom_site_fract_z
_atom_site_charge
In         In      0.62517   0.87587   0.24961   1.25827
In         In      0.37483   0.12412   0.75036   1.25837
H          H       0.81917   0.59574   0.06541   0.13715
H          H       0.24690   0.97123   0.06626   0.13692
H          H       0.46881   0.31836   0.56601   0.13683
H          H       0.09641   0.74714   0.56576   0.13745
H          H       0.18082   0.40427   0.93455   0.13700
H          H       0.75312   0.02881   0.93374   0.13714
H          H       0.53113   0.68162   0.43396   0.13690
H          H       0.90356   0.25287   0.43422   0.13730
C          C       0.67700   0.55399   0.03620   0.06053
C          C       0.39303   0.56466   0.05837   0.06402
C          C       0.27612   0.64094   0.12556   0.52805
C          C       0.35957   0.98307   0.03667   0.06036
C          C       0.66563   0.99470   0.05838   0.06438
C          C       0.85001   0.98670   0.12561   0.52832
C          C       0.48165   0.17651   0.53655   0.05985
C          C       0.49583   0.89358   0.55851   0.06421
C          C       0.48921   0.77700   0.62580   0.52873
C          C       0.05436   0.85974   0.53642   0.06000
C          C       0.06322   0.16469   0.55857   0.06449
C          C       0.13817   0.34813   0.62584   0.52882
C          C       0.32299   0.44602   0.96376   0.06056
C          C       0.60696   0.43535   0.94159   0.06437
C          C       0.72388   0.35906   0.87441   0.52750
C          C       0.64045   0.01696   0.96332   0.06025
C          C       0.33438   0.00533   0.94162   0.06421
C          C       0.15001   0.01331   0.87438   0.52851
C          C       0.51831   0.82347   0.46342   0.05993
C          C       0.50414   0.10640   0.44146   0.06434
C          C       0.51078   0.22299   0.37418   0.52851
C          C       0.94560   0.14027   0.46356   0.05996
C          C       0.93675   0.83532   0.44141   0.06450
C          C       0.86182   0.65188   0.37414   0.52865
N          N       0.56770   0.61787   0.09277  -0.20841
N          N       0.52567   0.97664   0.09320  -0.20785
N          N       0.47636   0.06774   0.59323  -0.20730
N          N       0.11686   0.02495   0.59318  -0.20784
N          N       0.43229   0.38214   0.90719  -0.20846
N          N       0.47435   0.02339   0.90679  -0.20766
N          N       0.52361   0.93224   0.40674  -0.20712
N          N       0.88310   0.97506   0.40680  -0.20771
O          O       0.34548   0.77023   0.20402  -0.51323
O          O       0.11908   0.57738   0.10279  -0.38255
O          O       0.85946   0.93464   0.20377  -0.51323
O          O       0.98383   0.02952   0.10310  -0.38331
O          O       0.43684   0.84540   0.70409  -0.51502
O          O       0.53346   0.62130   0.60307  -0.38286
O          O       0.26753   0.35714   0.70455  -0.51425
O          O       0.07361   0.48179   0.60280  -0.38301
O          O       0.65452   0.22977   0.79594  -0.51288
O          O       0.88092   0.42261   0.89719  -0.38220
O          O       0.14055   0.06536   0.79622  -0.51325
O          O       0.01619   0.97048   0.89690  -0.38365
O          O       0.56316   0.15460   0.29589  -0.51465
O          O       0.46653   0.37869   0.39691  -0.38304
O          O       0.73248   0.64286   0.29541  -0.51419
O          O       0.92639   0.51823   0.39720  -0.38273

