data_crystal

_audit_creation_method 'AiiDA-DDEC plugin'

_cell_length_a         9.13715
_cell_length_b         9.13715
_cell_length_c        10.67766

_cell_angle_alpha     90.02305
_cell_angle_beta     89.97656
_cell_angle_gamma     120.00401

_symmetry_space_group_name_Hall 'P 1'
_symmetry_space_group_name_H-M  'P 1'

loop_
_symmetry_equiv_pos_as_xyz
 'x,y,z'

loop_
_atom_site_label
_atom_site_type_symbol
_atom_site_fract_x
_atom_site_fract_y
_atom_site_fract_z
_atom_site_charge
Mn         Mn      0.00916   0.00916   0.50000   1.02625
Mn         Mn      0.99119   0.00002   0.16667   1.02630
Mn         Mn      0.00003   0.99119   0.83333   1.02622
H          H       0.70203   0.98899   0.37361   0.38550
H          H       0.43534   0.97192   0.46539   0.14009
H          H       0.01183   0.71288   0.04027   0.38591
H          H       0.02871   0.46347   0.13217   0.14010
H          H       0.28690   0.29870   0.70695   0.38593
H          H       0.53657   0.56520   0.79881   0.14011
H          H       0.98900   0.70203   0.62639   0.38549
H          H       0.97193   0.43533   0.53461   0.14010
H          H       0.71288   0.01182   0.95973   0.38581
H          H       0.46347   0.02870   0.86783   0.13995
H          H       0.29869   0.28689   0.29304   0.38578
H          H       0.56520   0.53657   0.20119   0.14006
C          C       0.65037   0.97717   0.55446   0.18921
C          C       0.50216   0.98416   0.55257  -0.24691
C          C       0.02329   0.67330   0.22117   0.18949
C          C       0.01644   0.51815   0.21932  -0.24738
C          C       0.32678   0.34999   0.88784   0.18927
C          C       0.48197   0.49826   0.88597  -0.24694
C          C       0.97718   0.65037   0.44554   0.18921
C          C       0.98417   0.50215   0.44743  -0.24699
C          C       0.67330   0.02328   0.77883   0.18968
C          C       0.51815   0.01643   0.78067  -0.24745
C          C       0.34999   0.32678   0.11216   0.18922
C          C       0.49826   0.48197   0.11403  -0.24688
C          C       0.27260   0.00035   0.66661   0.57540
C          C       0.74086   0.00018   0.66666   0.12316
C          C       0.43435   0.00034   0.66661  -0.03721
C          C       0.00036   0.27260   0.33339   0.57530
C          C       0.00018   0.74086   0.33334   0.12328
C          C       0.00034   0.43435   0.33339  -0.03718
C          C       0.72772   0.72772   0.00000   0.57493
C          C       0.25934   0.25934  -0.00000   0.12286
C          C       0.56594   0.56594   0.00000  -0.03726
O          O       0.24560   0.07834   0.57738  -0.58401
O          O       0.72058   0.94296   0.45069  -0.45035
O          O       0.92234   0.16753   0.24416  -0.58396
O          O       0.05742   0.77757   0.11738  -0.45084
O          O       0.83266   0.75480   0.91066  -0.58361
O          O       0.22235   0.27988   0.78411  -0.45100
O          O       0.07835   0.24560   0.42262  -0.58402
O          O       0.94297   0.72058   0.54931  -0.45047
O          O       0.16753   0.92233   0.75583  -0.58403
O          O       0.77757   0.05742   0.88262  -0.45092
O          O       0.75481   0.83267   0.08934  -0.58378
O          O       0.27988   0.22234   0.21589  -0.45088
O          O       0.88752   0.00011   0.66667  -0.55414
O          O       0.00011   0.88751   0.33333  -0.55424
O          O       0.11263   0.11263   0.00000  -0.55417

