data_crystal

_audit_creation_method 'AiiDA-DDEC plugin'

_cell_length_a         8.08780
_cell_length_b         7.92358
_cell_length_c        11.23266

_cell_angle_alpha     90.00045
_cell_angle_beta     88.89864
_cell_angle_gamma     89.99638

_symmetry_space_group_name_Hall 'P 1'
_symmetry_space_group_name_H-M  'P 1'

loop_
_symmetry_equiv_pos_as_xyz
 'x,y,z'

loop_
_atom_site_label
_atom_site_type_symbol
_atom_site_fract_x
_atom_site_fract_y
_atom_site_fract_z
_atom_site_charge
Ni         Ni      0.74637   0.74502   0.74740   0.98518
Ni         Ni      0.74633   0.74384   0.24740   0.98502
Ni         Ni      0.24630   0.24252   0.24735   0.98282
Ni         Ni      0.24634   0.24632   0.74735   0.98303
H          H       0.54563   0.44430   0.69394   0.06227
H          H       0.94667   0.44262   0.30139   0.06191
H          H       0.04572   0.94231   0.19376   0.06206
H          H       0.44627   0.94484   0.80087   0.06227
H          H       0.44606   0.54418   0.30075   0.06228
H          H       0.04590   0.54663   0.69389   0.06190
H          H       0.94674   0.04624   0.80139   0.06186
H          H       0.54553   0.04446   0.19390   0.06251
H          H       0.74603   0.84897   0.49722   0.06542
H          H       0.74578   0.63990   0.99722   0.06556
H          H       0.24633   0.14178   0.49801   0.06465
H          H       0.24666   0.34705  -0.00200   0.06455
C          C       0.47920   0.51229   0.76529   0.48637
C          C       0.01308   0.50979   0.22963   0.48881
C          C       0.97929   0.01012   0.26521   0.48809
C          C       0.51312   0.01240   0.72952   0.48849
C          C       0.51302   0.47651   0.22950   0.48826
C          C       0.97938   0.47877   0.76526   0.48796
C          C       0.01315   0.97906   0.72965   0.48841
C          C       0.47914   0.97653   0.26529   0.48566
C          C       0.74633   0.71054   0.49740   0.48917
C          C       0.74623   0.77834   0.99740   0.48927
C          C       0.24641   0.28022   0.49738   0.48837
C          C       0.24656   0.20861   0.99738   0.48882
O          O       0.73607   0.62905   0.59514  -0.43584
O          O       0.53262   0.65368   0.80232  -0.44024
O          O       0.34776   0.45068   0.81211  -0.44068
O          O       0.75697   0.62855   0.39988  -0.43532
O          O       0.96018   0.65145   0.19251  -0.44210
O          O       0.14380   0.44684   0.18258  -0.44272
O          O       0.73603   0.85982   0.09515  -0.43614
O          O       0.84793   0.94830   0.31198  -0.44145
O          O       0.03264   0.15151   0.30234  -0.44090
O          O       0.75697   0.86031   0.89988  -0.43552
O          O       0.64422   0.94973   0.68282  -0.44288
O          O       0.46035   0.15422   0.69254  -0.44285
O          O       0.25661   0.36088   0.39928  -0.43527
O          O       0.46032   0.33464   0.19257  -0.44262
O          O       0.64418   0.53910   0.18285  -0.44282
O          O       0.23624   0.36273   0.59473  -0.43565
O          O       0.03268   0.33734   0.80236  -0.44063
O          O       0.84797   0.54057   0.81198  -0.44152
O          O       0.25667   0.12793   0.89929  -0.43558
O          O       0.14386   0.04200   0.68260  -0.44229
O          O       0.96025   0.83741   0.69252  -0.44198
O          O       0.23625   0.12613   0.09474  -0.43571
O          O       0.34772   0.03817   0.31212  -0.44035
O          O       0.53258   0.83516   0.30234  -0.43989

