data_crystal

_audit_creation_method 'AiiDA-DDEC plugin'

_cell_length_a         6.69303
_cell_length_b        10.79966
_cell_length_c        13.41760

_cell_angle_alpha     89.88953
_cell_angle_beta     89.95228
_cell_angle_gamma     101.59652

_symmetry_space_group_name_Hall 'P 1'
_symmetry_space_group_name_H-M  'P 1'

loop_
_symmetry_equiv_pos_as_xyz
 'x,y,z'

loop_
_atom_site_label
_atom_site_type_symbol
_atom_site_fract_x
_atom_site_fract_y
_atom_site_fract_z
_atom_site_charge
Al         Al      0.50000   0.00000   0.50000   1.67758
Al         Al     -0.00000   0.50000   0.00000   1.67948
Al         Al     -0.00000   0.00000   0.50000   1.68295
Al         Al      0.50000   0.50000   0.00000   1.68409
H          H       0.51525   0.73740   0.75324   0.14231
H          H       0.98289   0.75915   0.74448   0.14864
H          H       0.19831   0.83821   0.47295   0.44042
H          H       0.98521   0.76304   0.25174   0.14219
H          H       0.51732   0.74074   0.24606   0.14849
H          H       0.30212   0.66227   0.97473   0.44140
H          H       0.48475   0.26260   0.24676   0.14241
H          H       0.01711   0.24085   0.25552   0.14858
H          H       0.80168   0.16179   0.52706   0.44052
H          H       0.01479   0.23696   0.74826   0.14214
H          H       0.48269   0.25927   0.75394   0.14852
H          H       0.69788   0.33774   0.02527   0.44126
C          C       0.69826   0.84837   0.63543   0.66896
C          C       0.67078   0.76622   0.72540  -0.16414
C          C       0.82718   0.73017   0.77211  -0.17989
C          C       0.79719   0.64866   0.86224   0.67990
C          C       0.79911   0.65005   0.13640   0.66885
C          C       0.82891   0.73354   0.22531  -0.16378
C          C       0.67370   0.77051   0.27237  -0.18049
C          C       0.70548   0.85337   0.36141   0.67815
C          C       0.30174   0.15164   0.36457   0.66919
C          C       0.32922   0.23378   0.27460  -0.16414
C          C       0.17282   0.26983   0.22788  -0.17991
C          C       0.20281   0.35135   0.13776   0.67980
C          C       0.20089   0.34996   0.86360   0.66882
C          C       0.17109   0.26647   0.77468  -0.16378
C          C       0.32630   0.22949   0.72763  -0.18046
C          C       0.29452   0.14664   0.63858   0.67812
O          O       0.87512   0.87459   0.59599  -0.60721
O          O       0.53803   0.88456   0.60560  -0.59923
O          O       0.95815   0.61989   0.89896  -0.60299
O          O       0.61618   0.61457   0.89591  -0.60711
O          O       0.22542   0.92376   0.49876  -1.00018
O          O       0.61998   0.62051   0.10008  -0.60632
O          O       0.95984   0.61649   0.10419  -0.60089
O          O       0.54441   0.87948   0.40027  -0.60336
O          O       0.88781   0.89090   0.39219  -0.60467
O          O       0.27450   0.57608  -0.00053  -1.00114
O          O       0.12487   0.12541   0.40401  -0.60735
O          O       0.46196   0.11545   0.39440  -0.59930
O          O       0.04185   0.38011   0.10104  -0.60299
O          O       0.38382   0.38544   0.10409  -0.60697
O          O       0.77458   0.07625   0.50124  -1.00017
O          O       0.38002   0.37950   0.89992  -0.60623
O          O       0.04017   0.38352   0.89581  -0.60096
O          O       0.45559   0.12052   0.59973  -0.60327
O          O       0.11219   0.10911   0.60781  -0.60477
O          O       0.72550   0.42393   0.00053  -1.00104

