data_crystal

_audit_creation_method 'AiiDA-DDEC plugin'

_cell_length_a         9.45754
_cell_length_b        10.40964
_cell_length_c         9.83750

_cell_angle_alpha     120.53510
_cell_angle_beta     117.18223
_cell_angle_gamma     92.50422

_symmetry_space_group_name_Hall 'P 1'
_symmetry_space_group_name_H-M  'P 1'

loop_
_symmetry_equiv_pos_as_xyz
 'x,y,z'

loop_
_atom_site_label
_atom_site_type_symbol
_atom_site_fract_x
_atom_site_fract_y
_atom_site_fract_z
_atom_site_charge
Zn         Zn      0.30637   0.16028   0.27421   0.66098
Zn         Zn      0.53297   0.88640   0.72640   0.66177
H          H       0.30604   0.82162   0.15734   0.29805
H          H       0.33793   0.73246   0.27814   0.29122
H          H       0.83030   0.20843   0.91783   0.30108
H          H       0.05083   0.27443   0.05877   0.29357
H          H       0.64914   0.66450   0.84308   0.29836
H          H       0.56029   0.45457   0.72239   0.29126
H          H       0.41152   0.29065   0.08192   0.30176
H          H       0.49173   0.21593   0.94133   0.29340
C          C       0.41507   0.97625   0.44364   0.51090
C          C       0.92343   0.07984   0.01537   0.49962
C          C       0.47168   0.53286   0.55690   0.51027
C          C       0.40800   0.06474   0.98493   0.49775
N          N       0.42473   0.11707   0.46542  -0.30908
N          N       0.51327   0.23567   0.65521  -0.05477
N          N       0.33810   0.83095   0.27784  -0.63040
N          N       0.49627   0.01011   0.61913  -0.32714
N          N       0.55548   0.17323   0.74707  -0.09254
N          N       0.98591   0.94429   0.13322  -0.06828
N          N       0.82267   0.88378   0.01016  -0.06806
N          N       0.05396   0.06926   0.14183  -0.32974
N          N       0.77800   0.96546   0.93213  -0.33466
N          N       0.93643   0.18292   0.97208  -0.64170
N          N       0.45967   0.65191   0.53512  -0.30903
N          N       0.35804   0.58073   0.34537  -0.05511
N          N       0.56084   0.55334   0.72264  -0.63044
N          N       0.37693   0.39124   0.38146  -0.32535
N          N       0.30806   0.42645   0.25356  -0.09328
N          N       0.35344   0.81148   0.86756  -0.06855
N          N       0.31296   0.87398   0.99053  -0.06873
N          N       0.41264   0.92781   0.85876  -0.32931
N          N       0.34581   0.03359   0.06827  -0.33204
N          N       0.46364   0.21102   0.02781  -0.64179

