data_crystal

_audit_creation_method 'AiiDA-DDEC plugin'

_cell_length_a        11.92062
_cell_length_b        12.10684
_cell_length_c        12.10866

_cell_angle_alpha     75.97434
_cell_angle_beta     60.51724
_cell_angle_gamma     60.51115

_symmetry_space_group_name_Hall 'P 1'
_symmetry_space_group_name_H-M  'P 1'

loop_
_symmetry_equiv_pos_as_xyz
 'x,y,z'

loop_
_atom_site_label
_atom_site_type_symbol
_atom_site_fract_x
_atom_site_fract_y
_atom_site_fract_z
_atom_site_charge
Al         Al      0.19195  -0.00002   0.61617   1.68191
Al         Al      0.80816  -0.00001   0.38378   1.68219
Al         Al      0.94200   0.11611   0.49996   1.68233
Al         Al      0.55810   0.88389   0.50001   1.68237
H          H       0.64667   0.05992   0.80404   0.12263
H          H       0.51064   0.94011   0.19592   0.12248
H          H       0.45665   0.30401   0.44002   0.12241
H          H       0.20075   0.69593   0.55993   0.12247
H          H       0.10342   0.69594   0.43999   0.12241
H          H       0.23941   0.30400   0.55993   0.12218
H          H       0.29346   0.05996   0.19591   0.12251
H          H       0.54930   0.94006   0.80408   0.12255
H          H       0.18846   0.93633   0.43664   0.41866
H          H       0.56162   0.06352   0.56346   0.41849
H          H       0.87487   0.93657   0.56358   0.41831
H          H       0.37505   0.06337   0.43635   0.41845
H          H       0.89005  -0.00005  -0.00001   0.14061
H          H       0.64006   0.50001   0.49996   0.13594
H          H       0.86001   0.49998   0.50002   0.13579
H          H       0.11003   0.00001  -0.00003   0.14069
C          C       0.89081   0.04883   0.76575   0.63591
C          C       0.78109   0.02762   0.88885  -0.04438
C          C       0.66111   0.03156   0.89027  -0.13223
C          C       0.70543   0.95113   0.23422   0.63622
C          C       0.69760   0.97233   0.11112  -0.04418
C          C       0.58295   0.96845   0.10970  -0.13231
C          C       0.68978   0.26577   0.45104   0.63633
C          C       0.55878   0.38884   0.47229  -0.04446
C          C       0.44272   0.39025   0.46838  -0.13202
C          C       0.40664   0.73420   0.54889   0.63617
C          C       0.41997   0.61112   0.52764  -0.04441
C          C       0.30142   0.60970   0.53155  -0.13154
C          C       0.85924   0.73421   0.45106   0.63615
C          C       0.96899   0.61112   0.47231  -0.04483
C          C       0.08897   0.60971   0.46838  -0.13174
C          C       0.04453   0.26576   0.54893   0.63604
C          C       0.05245   0.38884   0.52768  -0.04507
C          C       0.16711   0.39024   0.53156  -0.13153
C          C       0.06039   0.04890   0.23419   0.63581
C          C       0.19133   0.02768   0.11111  -0.04426
C          C       0.30738   0.03160   0.10969  -0.13223
C          C       0.34349   0.95112   0.76577   0.63598
C          C       0.33011   0.97234   0.88887  -0.04437
C          C       0.44864   0.96844   0.89029  -0.13236
C          C       0.79887  -0.00003  -0.00001  -0.08941
C          C       0.56186   0.00002  -0.00001   0.06438
C          C       0.54889   0.49999   0.49996  -0.08519
C          C       0.31191   0.49997   0.49996   0.06366
C          C       0.95120   0.49998   0.50000  -0.08413
C          C       0.18822   0.49997   0.49995   0.06411
C          C       0.20119   0.00001  -0.00002  -0.08904
C          C       0.43816   0.00003  -0.00001   0.06414
O          O       0.84872   0.10979   0.68047  -0.60953
O          O       0.01757   0.00124   0.75461  -0.57517
O          O       0.63898   0.89022   0.31951  -0.60980
O          O       0.77350  -0.00131   0.24535  -0.57518
O          O       0.70879   0.18050   0.38998  -0.60976
O          O       0.76891   0.25463   0.49867  -0.57511
O          O       0.27933   0.81947   0.60992  -0.60985
O          O       0.52225   0.74535   0.50130  -0.57499
O          O       0.90128   0.81948   0.38999  -0.60976
O          O       0.73248   0.74535   0.49871  -0.57475
O          O       0.11077   0.18048   0.61000  -0.60961
O          O       0.97654   0.25463   0.50128  -0.57469
O          O       0.04153   0.10985   0.31946  -0.60970
O          O       0.98121   0.00132   0.24533  -0.57475
O          O       0.47084   0.89020   0.68050  -0.60987
O          O       0.22787  -0.00135   0.75463  -0.57464
O          O       0.12364   0.00139   0.50142  -1.01105
O          O       0.62651  -0.00140   0.49855  -1.01090
O          O       0.87518   0.00132   0.49847  -1.01074
O          O       0.37499  -0.00134   0.50150  -1.01074

