data_crystal

_audit_creation_method 'AiiDA-DDEC plugin'

_cell_length_a         7.54595
_cell_length_b         7.39613
_cell_length_c        13.16204

_cell_angle_alpha     90.07016
_cell_angle_beta     89.96994
_cell_angle_gamma     90.36793

_symmetry_space_group_name_Hall 'P 1'
_symmetry_space_group_name_H-M  'P 1'

loop_
_symmetry_equiv_pos_as_xyz
 'x,y,z'

loop_
_atom_site_label
_atom_site_type_symbol
_atom_site_fract_x
_atom_site_fract_y
_atom_site_fract_z
_atom_site_charge
Mn         Mn      0.56314   0.14239   0.84740   1.12150
Mn         Mn      0.44260   0.86288   0.34805   1.12315
Mn         Mn      0.85780   0.57114   0.09672   1.12036
Mn         Mn      0.14155   0.42935   0.59826   1.12165
H          H       0.59575   0.10466   0.63879   0.34894
H          H       0.75328   0.86071   0.63638   0.08367
H          H       0.39773   0.71539   0.71544   0.14018
H          H       0.56839   0.57101   0.67453   0.14352
H          H       0.40403   0.89743   0.14004   0.34941
H          H       0.24685   0.14263   0.13844   0.08380
H          H       0.60514   0.28718   0.21374   0.14001
H          H       0.43454   0.43178   0.17346   0.14393
H          H       0.89944   0.59594   0.88865   0.35003
H          H       0.14116   0.75560   0.88716   0.08365
H          H       0.27696   0.39124   0.96450   0.14213
H          H       0.42140   0.56507   0.92442   0.14345
H          H       0.10400   0.40790   0.39021   0.34846
H          H       0.86167   0.24645   0.38648   0.08325
H          H       0.72505   0.61109   0.46346   0.14130
H          H       0.58059   0.43711   0.42355   0.14431
C          C       0.73197   0.80225   0.79526   0.55578
C          C       0.64683   0.85168   0.69340   0.10969
C          C       0.51184   0.70646   0.66397  -0.38487
C          C       0.44160   0.71706   0.55705   0.66740
C          C       0.27365   0.20391   0.29695   0.55411
C          C       0.35509   0.15203   0.19427   0.11041
C          C       0.49014   0.29580   0.16300  -0.38512
C          C       0.55873   0.28325   0.05578   0.66365
C          C       0.19804   0.73237   0.04594   0.55136
C          C       0.14809   0.64634   0.94377   0.11049
C          C       0.28754   0.50823   0.91357  -0.38643
C          C       0.27466   0.43829   0.80639   0.66328
C          C       0.80179   0.26862   0.54509   0.54899
C          C       0.85361   0.35537   0.44341   0.11399
C          C       0.71460   0.49368   0.41267  -0.38619
C          C       0.72716   0.56265   0.30523   0.66118
O          O       0.79944   0.64671   0.80023  -0.51041
O          O       0.72692   0.91893   0.86737  -0.57615
O          O       0.31920   0.60779   0.52878  -0.60329
O          O       0.51104   0.83217   0.49663  -0.55870
O          O       0.56204   0.02341   0.70219  -0.53864
O          O       0.20716   0.35994   0.30223  -0.50907
O          O       0.28076   0.08838   0.36938  -0.57605
O          O       0.68108   0.39213   0.02659  -0.60469
O          O       0.48878   0.16763   0.99585  -0.55471
O          O       0.43905   0.97979   0.20297  -0.53877
O          O       0.35479   0.79216   0.05314  -0.50545
O          O       0.08019   0.73634   0.11610  -0.57351
O          O       0.37842   0.31199   0.77734  -0.60746
O          O       0.16351   0.51111   0.74635  -0.55310
O          O       0.97818   0.56055   0.95199  -0.53756
O          O       0.64519   0.20805   0.55104  -0.50448
O          O       0.91810   0.26458   0.61609  -0.57420
O          O       0.62362   0.68911   0.27619  -0.60756
O          O       0.83723   0.48856   0.24482  -0.55297
O          O       0.02332   0.44072   0.45327  -0.53770

