data_crystal

_audit_creation_method 'AiiDA-DDEC plugin'

_cell_length_a         8.67721
_cell_length_b         8.67697
_cell_length_c        14.85651

_cell_angle_alpha     92.35344
_cell_angle_beta     92.34908
_cell_angle_gamma     89.75313

_symmetry_space_group_name_Hall 'P 1'
_symmetry_space_group_name_H-M  'P 1'

loop_
_symmetry_equiv_pos_as_xyz
 'x,y,z'

loop_
_atom_site_label
_atom_site_type_symbol
_atom_site_fract_x
_atom_site_fract_y
_atom_site_fract_z
_atom_site_charge
Cd         Cd      0.48175   0.51826   0.25000   0.43530
Cd         Cd      0.51824   0.48175   0.74999   0.43522
Cd         Cd      0.50000   0.00001   0.00000   0.97061
Cd         Cd      0.00000   0.49999   0.50000   0.97073
H          H       0.80696   0.90867   0.06553   0.33528
H          H       0.80662   0.09965   0.06413   0.33461
H          H       0.83297   0.99541   0.96991   0.32464
H          H       0.09132   0.19305   0.43443   0.33539
H          H       0.90035   0.19341   0.43584   0.33493
H          H       0.00458   0.16694   0.53003   0.32463
H          H       0.19302   0.09133   0.93446   0.33561
H          H       0.19342   0.90036   0.93587   0.33457
H          H       0.16704   0.00460   0.03008   0.32452
H          H       0.90868   0.80694   0.56556   0.33536
H          H       0.09965   0.80658   0.56416   0.33475
H          H       0.99543   0.83303   0.46996   0.32476
C          C       0.47838   0.71896   0.16185  -0.04995
C          C       0.69354   0.52072   0.33959  -0.05173
C          C       0.28101   0.52158   0.33813  -0.04984
C          C       0.47924   0.30644   0.16042  -0.05182
C          C       0.52161   0.28101   0.83813  -0.04988
C          C       0.30647   0.47928   0.66039  -0.05192
C          C       0.71899   0.47845   0.66187  -0.04999
C          C       0.52072   0.69355   0.83959  -0.05163
N          N       0.47779   0.81810   0.11061  -0.37813
N          N       0.52085   0.79974   0.89092  -0.37834
N          N       0.77495   0.00092   0.02840  -0.83944
N          N       0.18183   0.52211   0.38934  -0.37825
N          N       0.20031   0.47920   0.60905  -0.37798
N          N      -0.00093   0.22502   0.47158  -0.83990
N          N       0.52220   0.18187   0.88936  -0.37824
N          N       0.47912   0.20026   0.10909  -0.37814
N          N       0.22505  -0.00090   0.97160  -0.83959
N          N       0.81817   0.47790   0.61066  -0.37810
N          N       0.79971   0.52080   0.39094  -0.37823
N          N       0.00093   0.77496   0.52841  -0.83981

