data_crystal

_audit_creation_method 'AiiDA-DDEC plugin'

_cell_length_a         7.08643
_cell_length_b        15.87868
_cell_length_c        15.86939

_cell_angle_alpha     117.75259
_cell_angle_beta     98.58965
_cell_angle_gamma     98.55146

_symmetry_space_group_name_Hall 'P 1'
_symmetry_space_group_name_H-M  'P 1'

loop_
_symmetry_equiv_pos_as_xyz
 'x,y,z'

loop_
_atom_site_label
_atom_site_type_symbol
_atom_site_fract_x
_atom_site_fract_y
_atom_site_fract_z
_atom_site_charge
Cd         Cd      0.53062   0.74360   0.42285   1.08480
Cd         Cd      0.10800   0.57754   0.32075   1.08535
Cd         Cd      0.78728   0.67973   0.25661   1.08533
Cd         Cd      0.46940   0.25641   0.57716   1.08486
Cd         Cd      0.89203   0.42246   0.67926   1.08528
Cd         Cd      0.21274   0.32027   0.74339   1.08544
H          H       0.35630   0.02169   0.55496   0.13916
H          H       0.80123   0.44504   0.46678   0.13945
H          H       0.33447   0.53295   0.97811   0.13925
H          H       0.64372   0.97831   0.44505   0.13926
H          H       0.19879   0.55496   0.53323   0.13956
H          H       0.66555   0.46705   0.02190   0.13938
C          C       0.18717   0.83635   0.43481   0.61662
C          C       0.08126   0.91674   0.46533  -0.14307
C          C       0.19896   0.01215   0.53084  -0.20253
C          C       0.12513   0.09608   0.56643   0.29591
C          C       0.75242   0.56542   0.40154   0.61727
C          C       0.61601   0.53478   0.45142  -0.14329
C          C       0.66805   0.46915   0.48132  -0.20187
C          C       0.55855   0.43345   0.52965   0.29554
C          C       0.35099   0.59881   0.16379   0.62016
C          C       0.16466   0.54876   0.08331  -0.14260
C          C       0.18675   0.51852   0.98775  -0.20257
C          C       0.02883   0.47002   0.90378   0.29404
C          C       0.81285   0.16365   0.56520   0.61661
C          C       0.91876   0.08326   0.53467  -0.14320
C          C       0.80106   0.98785   0.46917  -0.20236
C          C       0.87489   0.90392   0.43357   0.29571
C          C       0.24760   0.43458   0.59846   0.61703
C          C       0.38401   0.46522   0.54859  -0.14325
C          C       0.33198   0.53085   0.51868  -0.20189
C          C       0.44147   0.56655   0.47036   0.29564
C          C       0.64903   0.40119   0.83622   0.61998
C          C       0.83535   0.45124   0.91670  -0.14255
C          C       0.81327   0.48148   0.01226  -0.20231
C          C       0.97119   0.52998   0.09622   0.29400
O          O       0.10262   0.74888   0.36323  -0.63367
O          O       0.36727   0.85933   0.48134  -0.53219
O          O       0.25796   0.18384   0.62779  -0.62562
O          O       0.73853   0.63664   0.38505  -0.63358
O          O       0.88669   0.51933   0.37854  -0.53226
O          O       0.62992   0.37197   0.55603  -0.62623
O          O       0.35383   0.61531   0.25152  -0.63466
O          O       0.50814   0.62194   0.14063  -0.53416
O          O       0.07361   0.44331   0.81587  -0.62516
O          O       0.89739   0.25112   0.63677  -0.63385
O          O       0.63275   0.14067   0.51866  -0.53199
O          O       0.74206   0.81616   0.37222  -0.62541
O          O       0.26148   0.36335   0.61495  -0.63333
O          O       0.11334   0.48068   0.62147  -0.53225
O          O       0.37011   0.62804   0.44398  -0.62641
O          O       0.64620   0.38469   0.74849  -0.63472
O          O       0.49187   0.37807   0.85937  -0.53380
O          O       0.92641   0.55669   0.18413  -0.62488

