data_crystal

_audit_creation_method 'AiiDA-DDEC plugin'

_cell_length_a        10.20741
_cell_length_b        10.45152
_cell_length_c        15.19144

_cell_angle_alpha     89.99962
_cell_angle_beta     98.47764
_cell_angle_gamma     90.00261

_symmetry_space_group_name_Hall 'P 1'
_symmetry_space_group_name_H-M  'P 1'

loop_
_symmetry_equiv_pos_as_xyz
 'x,y,z'

loop_
_atom_site_label
_atom_site_type_symbol
_atom_site_fract_x
_atom_site_fract_y
_atom_site_fract_z
_atom_site_charge
In         In      0.70967   0.24361   0.05428   1.34997
In         In      0.29035   0.74359   0.44571   1.34981
In         In      0.29035   0.75082   0.94571   1.34987
In         In      0.70967   0.25084   0.55430   1.34985
Co         Co      0.50000  -0.00277  -0.00001   1.30473
Co         Co      0.50001   0.49720   0.49998   1.30487
H          H       0.54352   0.85699   0.24830   0.14248
H          H       0.95355   0.96242   0.25666   0.14402
H          H       0.83730   0.71398   0.45827   0.14632
H          H       0.45649   0.35690   0.25174   0.14238
H          H       0.04647   0.46237   0.24335   0.14428
H          H       0.16272   0.21396   0.04172   0.14623
H          H       0.45650   0.13737   0.75164   0.14241
H          H       0.04646   0.03199   0.74332   0.14411
H          H       0.16269   0.28047   0.54172   0.14634
H          H       0.54353   0.63758   0.74824   0.14246
H          H       0.95354   0.53211   0.75662   0.14403
H          H       0.83732   0.78056   0.95823   0.14645
C          C       0.70780   0.99346   0.16021   0.59422
C          C       0.64579   0.85238   0.28048  -0.07361
C          C       0.87647   0.91206   0.28511  -0.07158
C          C       0.05001   0.81981   0.40113   0.55087
C          C       0.56930   0.71445   0.39559   0.58317
C          C       0.74459   0.91789   0.24403  -0.03569
C          C       0.67855   0.78071   0.35837  -0.04123
C          C       0.81052   0.77210   0.39899  -0.06851
C          C       0.90922   0.83783   0.36216  -0.03033
C          C       0.29221   0.49342   0.33980   0.59482
C          C       0.35423   0.35230   0.21955  -0.07387
C          C       0.12355   0.41200   0.21490  -0.07152
C          C       0.95001   0.31979   0.09886   0.55079
C          C       0.43071   0.21443   0.10440   0.58300
C          C       0.25543   0.41783   0.25599  -0.03576
C          C       0.32146   0.28065   0.14165  -0.04085
C          C       0.18950   0.27206   0.10102  -0.06870
C          C       0.09080   0.33778   0.13785  -0.03035
C          C       0.29220   0.00097   0.83977   0.59445
C          C       0.35423   0.14200   0.71948  -0.07356
C          C       0.12354   0.08234   0.71487  -0.07117
C          C       0.95000   0.17462   0.59886   0.55074
C          C       0.43070   0.27996   0.60437   0.58323
C          C       0.25542   0.07650   0.75594  -0.03607
C          C       0.32145   0.21369   0.64160  -0.04111
C          C       0.18948   0.22231   0.60099  -0.06866
C          C       0.09078   0.15658   0.63782  -0.03048
C          C       0.70780   0.50104   0.66019   0.59469
C          C       0.64580   0.64219   0.78042  -0.07360
C          C       0.87647   0.58248   0.78507  -0.07179
C          C       0.04999   0.67468   0.90112   0.55101
C          C       0.56930   0.78004   0.89558   0.58332
C          C       0.74459   0.57666   0.74398  -0.03577
C          C       0.67856   0.71384   0.85832  -0.04076
C          C       0.81053   0.72244   0.89894  -0.06882
C          C       0.90922   0.65671   0.86212  -0.03042
Br         Br      0.56809   0.41091   0.94312  -0.18904
Br         Br      0.43212   0.91072   0.55691  -0.18907
Br         Br      0.43200   0.58362   0.05691  -0.18891
Br         Br      0.56799   0.08367   0.44308  -0.18917
O          O       0.14242   0.86163   0.35924  -0.52130
O          O       0.60625   0.63252   0.45719  -0.45659
O          O       0.78713   0.07831   0.14060  -0.51291
O          O       0.07947   0.75578   0.47337  -0.51583
O          O       0.45093   0.74462   0.36347  -0.54334
O          O       0.59413   0.96149   0.11754  -0.47048
O          O       0.61878   0.10113   0.96909  -0.63307
O          O       0.85761   0.36163   0.14075  -0.52106
O          O       0.39376   0.13253   0.04278  -0.45639
O          O       0.21288   0.57826   0.35941  -0.51278
O          O       0.92054   0.25577   0.02662  -0.51605
O          O       0.54908   0.24463   0.13652  -0.54347
O          O       0.40589   0.46149   0.38245  -0.47113
O          O       0.38121   0.60107   0.53089  -0.63254
O          O       0.85759   0.13279   0.64075  -0.52103
O          O       0.39376   0.36185   0.54274  -0.45656
O          O       0.21287   0.91612   0.85939  -0.51278
O          O       0.92053   0.23866   0.52663  -0.51598
O          O       0.54908   0.24982   0.63652  -0.54353
O          O       0.40586   0.03295   0.88245  -0.47068
O          O       0.38122   0.89332   0.03090  -0.63266
O          O       0.14241   0.63282   0.85925  -0.52168
O          O       0.60625   0.86194   0.95719  -0.45651
O          O       0.78712   0.41617   0.64060  -0.51315
O          O       0.07947   0.73868   0.97337  -0.51567
O          O       0.45093   0.74982   0.86347  -0.54360
O          O       0.59412   0.53295   0.61752  -0.47070
O          O       0.61882   0.39333   0.46909  -0.63302

