data_crystal

_audit_creation_method 'AiiDA-DDEC plugin'

_cell_length_a         7.28168
_cell_length_b        13.09103
_cell_length_c        11.42171

_cell_angle_alpha     121.69567
_cell_angle_beta     81.81472
_cell_angle_gamma     109.79015

_symmetry_space_group_name_Hall 'P 1'
_symmetry_space_group_name_H-M  'P 1'

loop_
_symmetry_equiv_pos_as_xyz
 'x,y,z'

loop_
_atom_site_label
_atom_site_type_symbol
_atom_site_fract_x
_atom_site_fract_y
_atom_site_fract_z
_atom_site_charge
Co         Co      0.09683   0.89068   0.26424   0.95352
Co         Co      0.91026   0.11867   0.74562   0.95400
Co         Co      0.50386   0.00459   0.50485   1.15886
Co         Co      0.00276   0.00484   0.00535   0.94293
H          H       0.80471   0.25529   0.41951   0.12314
H          H       0.04130   0.57191   0.30262   0.11839
H          H       0.62922   0.26503   0.02306   0.12552
H          H       0.74168   0.62431   0.34472   0.12251
H          H       0.96185   0.37903   0.12589   0.11928
H          H       0.48426   0.45749   0.37265   0.11901
H          H       0.20203   0.75419   0.59029   0.12452
H          H       0.96575   0.43751   0.70667   0.11900
H          H       0.37627   0.74489   0.98739   0.12550
H          H       0.26503   0.38471   0.66523   0.12275
H          H       0.04389   0.63059   0.88401   0.11917
H          H       0.52193   0.55166   0.63720   0.11898
C          C       0.90362   0.33256   0.28767  -0.00777
C          C       0.24566   0.50122   0.33635   0.00574
C          C       0.76448   0.25901   0.33420  -0.08031
C          C       0.19401   0.58057   0.30894  -0.12771
C          C       0.57771   0.18806   0.27156  -0.05097
C          C       0.33834   0.67795   0.29906  -0.03435
C          C       0.52628   0.19356   0.16098   0.01035
C          C       0.53739   0.69446   0.31130  -0.03928
C          C       0.66611   0.26346   0.11086  -0.11238
C          C       0.58816   0.61192   0.33445  -0.07753
C          C       0.85459   0.33029   0.17136  -0.08843
C          C       0.44460   0.51842   0.34985  -0.08594
C          C       0.44906   0.10128   0.31802   0.62771
C          C       0.26667   0.75990   0.27567   0.58709
C          C       0.32583   0.12799   0.09657   0.57012
C          C       0.69494   0.79818   0.30198   0.59611
C          C       0.09705   0.40664   0.36548   0.36497
C          C       0.10269   0.67706   0.72224  -0.00706
C          C       0.76096   0.50807   0.67320   0.00494
C          C       0.24200   0.75061   0.67576  -0.08278
C          C       0.81296   0.42875   0.70048  -0.12856
C          C       0.42865   0.82162   0.73863  -0.04893
C          C       0.66892   0.33133   0.71046  -0.03296
C          C       0.47962   0.81623   0.84940   0.01008
C          C       0.46976   0.31470   0.69841  -0.04104
C          C       0.33961   0.74636   0.89946  -0.11201
C          C       0.41863   0.39717   0.67533  -0.07714
C          C       0.15132   0.67940   0.83869  -0.08877
C          C       0.56192   0.49075   0.65986  -0.08494
C          C       0.55780   0.90826   0.69212   0.62526
C          C       0.74089   0.24957   0.73400   0.58515
C          C       0.67992   0.88173   0.91398   0.56934
C          C       0.31256   0.21092   0.70789   0.59704
C          C       0.90945   0.60284   0.64423   0.36471
O          O       0.51330   0.10400   0.41664  -0.56944
O          O       0.19937   0.72389   0.16021  -0.46810
O          O       0.28013   0.02799   0.25411  -0.57737
O          O       0.25569   0.86831   0.38058  -0.59383
O          O       0.28846   0.02562   0.97814  -0.52520
O          O       0.67947   0.90663   0.35070  -0.57546
O          O       0.18524   0.17253   0.15702  -0.53212
O          O       0.84771   0.76751   0.23984  -0.55424
O          O       0.13536   0.39359   0.45793  -0.39422
O          O       0.49435   0.90506   0.59289  -0.56854
O          O       0.80826   0.28576   0.84950  -0.46811
O          O       0.72627   0.98190   0.75655  -0.57724
O          O       0.75195   0.14110   0.62919  -0.59276
O          O       0.71713   0.98399   0.03251  -0.52457
O          O       0.32837   0.10255   0.65909  -0.57485
O          O       0.82053   0.83720   0.85356  -0.53196
O          O       0.15985   0.24149   0.77030  -0.55514
O          O       0.87130   0.61596   0.55180  -0.39369

