data_crystal

_audit_creation_method 'AiiDA-DDEC plugin'

_cell_length_a         6.53962
_cell_length_b         9.79647
_cell_length_c        10.01649

_cell_angle_alpha     92.24247
_cell_angle_beta     109.01724
_cell_angle_gamma     90.01226

_symmetry_space_group_name_Hall 'P 1'
_symmetry_space_group_name_H-M  'P 1'

loop_
_symmetry_equiv_pos_as_xyz
 'x,y,z'

loop_
_atom_site_label
_atom_site_type_symbol
_atom_site_fract_x
_atom_site_fract_y
_atom_site_fract_z
_atom_site_charge
Cu         Cu      0.07103   0.75000  -0.00002   1.15487
Cu         Cu      0.92896   0.25000   0.00002   1.15480
P          P       0.12072   0.00501   0.20140   1.21827
P          P       0.91793   0.49502   0.79834   1.21769
P          P       0.87927   0.99499   0.79859   1.21827
P          P       0.08206   0.50499   0.20165   1.21762
H          H       0.33546   0.22204   0.41301   0.11471
H          H       0.36338   0.78505   0.35878   0.11576
H          H       0.75747   0.04150   0.32360   0.09902
H          H       0.59032   0.91968   0.19467   0.12769
H          H       0.66957   0.07566   0.13808   0.10898
H          H       0.92124   0.27805   0.58667   0.11409
H          H       0.00434   0.71498   0.64115   0.11544
H          H       0.43294   0.45758   0.67753   0.09946
H          H       0.39454   0.58052   0.80548   0.12852
H          H       0.53097   0.42506   0.86341   0.10958
H          H       0.66453   0.77797   0.58698   0.11464
H          H       0.63661   0.21495   0.64122   0.11575
H          H       0.24253   0.95850   0.67641   0.09908
H          H       0.40966   0.08034   0.80533   0.12783
H          H       0.33044   0.92436   0.86194   0.10889
H          H       0.07875   0.72196   0.41332   0.11416
H          H       0.99565   0.28503   0.35884   0.11532
H          H       0.56706   0.54241   0.32248   0.09939
H          H       0.60545   0.41949   0.19452   0.12848
H          H       0.46903   0.57495   0.13659   0.10972
C          C       0.32448   0.00336   0.37359  -0.18136
C          C       0.40512   0.12492   0.45233  -0.06741
C          C       0.42190   0.87866   0.42186  -0.07313
C          C       0.71993   0.99642   0.21609  -0.13495
C          C       0.95004   0.49669   0.62621  -0.18173
C          C       0.95210   0.37514   0.54749  -0.06629
C          C      -0.00012   0.62135   0.57810  -0.07314
C          C       0.50292   0.50358   0.78462  -0.13774
C          C       0.67551   0.99664   0.62641  -0.18130
C          C       0.59487   0.87508   0.54767  -0.06762
C          C       0.57809   0.12134   0.57814  -0.07314
C          C       0.28007   0.00359   0.78391  -0.13517
C          C       0.04995   0.50332   0.37379  -0.18183
C          C       0.04789   0.62487   0.45251  -0.06615
C          C       0.00011   0.37865   0.42189  -0.07300
C          C       0.49708   0.49642   0.21538  -0.13775
O          O       0.21270   0.91727   0.10551  -0.75906
O          O       0.90554   0.92379   0.20006  -0.37641
O          O       0.07391   0.15548   0.17177  -0.76941
O          O       0.10594   0.58264   0.89416  -0.75919
O          O       0.70421   0.57628   0.79973  -0.37500
O          O       0.90027   0.34457   0.82795  -0.76919
O          O       0.78729   0.08274   0.89449  -0.75902
O          O       0.09445   0.07622   0.79994  -0.37626
O          O       0.92608   0.84453   0.82823  -0.76954
O          O       0.89405   0.41736   0.10583  -0.75908
O          O       0.29578   0.42373   0.20027  -0.37508
O          O       0.09972   0.65544   0.17205  -0.76908

