data_crystal

_audit_creation_method 'AiiDA-DDEC plugin'

_cell_length_a         8.63173
_cell_length_b        10.13681
_cell_length_c         9.95238

_cell_angle_alpha     80.36572
_cell_angle_beta     84.74093
_cell_angle_gamma     89.25269

_symmetry_space_group_name_Hall 'P 1'
_symmetry_space_group_name_H-M  'P 1'

loop_
_symmetry_equiv_pos_as_xyz
 'x,y,z'

loop_
_atom_site_label
_atom_site_type_symbol
_atom_site_fract_x
_atom_site_fract_y
_atom_site_fract_z
_atom_site_charge
Zn         Zn      0.75341   0.67672   0.82850   0.98678
Zn         Zn      0.70638   0.35559   0.88743   0.97765
Zn         Zn      0.24659   0.32317   0.17149   0.98681
Zn         Zn      0.29362   0.64433   0.11258   0.97773
Zn         Zn     -0.00001   0.49996   0.00002   1.00891
H          H       0.69317   0.51966   0.05439   0.41674
H          H       0.85958   0.57717   0.44041   0.13522
H          H       0.87867   0.95817   0.90993   0.14012
H          H       0.42355   0.63313   0.52570   0.14805
H          H       0.39279   0.91587   0.11399   0.14652
H          H       0.30677   0.48022   0.94563   0.41652
H          H       0.14041   0.42260   0.55968   0.13537
H          H       0.12130   0.04169   0.09009   0.14001
H          H       0.57648   0.36668   0.47427   0.14790
H          H       0.60723   0.08398   0.88606   0.14661
C          C       0.00971   0.45714   0.31695   0.63145
C          C       0.96008   0.51105   0.44432  -0.16222
C          C       0.04167   0.81085   0.00492   0.65057
C          C       0.97402   0.94740   0.97509  -0.17108
C          C       0.57462   0.52265   0.67124   0.62539
C          C       0.49345   0.54294   0.54461  -0.16431
C          C       0.55307   0.82124   0.97306   0.62960
C          C       0.48028   0.93667   0.02732  -0.17148
C          C       0.99030   0.54265   0.68314   0.63132
C          C       0.03991   0.48872   0.55577  -0.16249
C          C       0.95831   0.18902   0.99511   0.65096
C          C       0.02595   0.05246   0.02493  -0.17157
C          C       0.42541   0.47718   0.32873   0.62484
C          C       0.50658   0.45688   0.45536  -0.16324
C          C       0.44692   0.17863   0.02695   0.63010
C          C       0.51973   0.06318   0.97272  -0.17176
O          O       0.76327   0.50899   0.97429  -0.86524
O          O       0.95992   0.52018   0.20741  -0.56561
O          O       0.10152   0.35581   0.32599  -0.55587
O          O       0.98603   0.71878   0.95030  -0.57823
O          O       0.15361   0.79576   0.08311  -0.55728
O          O       0.56124   0.61580   0.74297  -0.56868
O          O       0.65267   0.41397   0.69937  -0.56155
O          O       0.66519   0.84335   0.87850  -0.50565
O          O       0.50560   0.70265   0.02364  -0.56536
O          O       0.23669   0.49090   0.02574  -0.86486
O          O       0.04003   0.47957   0.79269  -0.56570
O          O       0.89855   0.64402   0.67408  -0.55580
O          O       0.01395   0.28106   0.04974  -0.57845
O          O       0.84637   0.20412   0.91692  -0.55717
O          O       0.43884   0.38407   0.25695  -0.56827
O          O       0.34732   0.58584   0.30064  -0.56183
O          O       0.33480   0.15653   0.12151  -0.50585
O          O       0.49439   0.29720   0.97634  -0.56560

