data_crystal

_audit_creation_method 'AiiDA-DDEC plugin'

_cell_length_a         6.77800
_cell_length_b        14.98366
_cell_length_c        14.92980

_cell_angle_alpha     117.81219
_cell_angle_beta     98.74148
_cell_angle_gamma     98.64116

_symmetry_space_group_name_Hall 'P 1'
_symmetry_space_group_name_H-M  'P 1'

loop_
_symmetry_equiv_pos_as_xyz
 'x,y,z'

loop_
_atom_site_label
_atom_site_type_symbol
_atom_site_fract_x
_atom_site_fract_y
_atom_site_fract_z
_atom_site_charge
Ni         Ni      0.96550   0.59319   0.26627   0.96023
Ni         Ni      0.69931   0.73441   0.32717   0.96009
Ni         Ni      0.37331   0.67443   0.40863   0.96032
Ni         Ni      0.03449   0.40680   0.73373   0.96015
Ni         Ni      0.30068   0.26559   0.67283   0.96001
Ni         Ni      0.62668   0.32557   0.59137   0.96040
H          H       0.87276   0.55819   0.02131   0.14389
H          H       0.85175   0.97892   0.53720   0.14404
H          H       0.31491   0.46350   0.44180   0.14368
H          H       0.12722   0.44181   0.97868   0.14413
H          H       0.14824   0.02109   0.46280   0.14425
H          H       0.68508   0.53650   0.55821   0.14376
C          C       0.69156   0.42138   0.82707   0.62852
C          C       0.58414   0.45813   0.91225  -0.14884
C          C       0.63308   0.57636   0.10169   0.30243
C          C       0.70864   0.53276   0.01213  -0.18450
C          C       0.86423   0.17228   0.59397   0.62788
C          C       0.67175   0.08741   0.54569  -0.14807
C          C       0.53172   0.89876   0.47503   0.30141
C          C       0.69667   0.98799   0.52080  -0.18454
C          C       0.26936   0.40487   0.57747   0.62883
C          C       0.12561   0.45368   0.54126  -0.14858
C          C       0.05737   0.52600   0.42427   0.30427
C          C       0.17609   0.47959   0.46725  -0.18551
C          C       0.30843   0.57862   0.17293   0.62852
C          C       0.41585   0.54187   0.08774  -0.14892
C          C       0.36691   0.42364   0.89830   0.30233
C          C       0.29135   0.46724   0.98787  -0.18441
C          C       0.13576   0.82772   0.40603   0.62758
C          C       0.32824   0.91259   0.45431  -0.14796
C          C       0.46827   0.10124   0.52496   0.30143
C          C       0.30331   0.01201   0.47919  -0.18450
C          C       0.73063   0.59513   0.42253   0.62874
C          C       0.87438   0.54632   0.45874  -0.14862
C          C       0.94263   0.47400   0.57573   0.30410
C          C       0.82390   0.52041   0.53275  -0.18529
O          O       0.88313   0.45952   0.84564  -0.50895
O          O       0.58901   0.34823   0.73333  -0.59939
O          O       0.77169   0.64747   0.19301  -0.59336
O          O       0.03750   0.15398   0.61383  -0.50826
O          O       0.85496   0.26557   0.61416  -0.59992
O          O       0.57938   0.80788   0.45519  -0.59301
O          O       0.42227   0.38481   0.53892  -0.50872
O          O       0.24001   0.38451   0.65072  -0.59989
O          O       0.12541   0.54681   0.35371  -0.59470
O          O       0.11685   0.54048   0.15436  -0.50867
O          O       0.41098   0.65177   0.26667  -0.59947
O          O       0.22830   0.35253   0.80699  -0.59309
O          O       0.96249   0.84602   0.38617  -0.50795
O          O       0.14503   0.73443   0.38584  -0.59986
O          O       0.42061   0.19212   0.54481  -0.59286
O          O       0.57772   0.61519   0.46109  -0.50863
O          O       0.75998   0.61549   0.34929  -0.59982
O          O       0.87458   0.45319   0.64629  -0.59469

