data_crystal

_audit_creation_method 'AiiDA-DDEC plugin'

_cell_length_a         5.54295
_cell_length_b        12.17895
_cell_length_c        10.33773

_cell_angle_alpha     86.74130
_cell_angle_beta     75.74571
_cell_angle_gamma     76.80656

_symmetry_space_group_name_Hall 'P 1'
_symmetry_space_group_name_H-M  'P 1'

loop_
_symmetry_equiv_pos_as_xyz
 'x,y,z'

loop_
_atom_site_label
_atom_site_type_symbol
_atom_site_fract_x
_atom_site_fract_y
_atom_site_fract_z
_atom_site_charge
Ni         Ni      0.83298   0.46664   0.50544  -0.12089
Ni         Ni      0.04982   0.03184   0.00424  -0.12067
H          H       0.08956   0.85193   0.17252   0.09320
H          H       0.84263   0.19862   0.21948   0.08797
H          H       0.81646   0.18544   0.46279   0.11464
H          H       0.90088   0.99160   0.56997   0.12041
H          H       0.35834   0.74455   0.25550   0.26583
H          H       0.19038   0.58076   0.42763   0.23167
H          H       0.48317   0.58712   0.43439   0.20073
H          H       0.11527   0.19177   0.80459   0.09429
H          H       0.23387   0.84374   0.81937   0.08848
H          H       0.44048   0.82601   0.57648   0.11828
H          H       0.46140   0.00405   0.43863   0.10739
H          H       0.32699   0.30088   0.70049   0.26691
H          H       0.50431   0.42942   0.51007   0.13258
H          H       0.21785   0.47346   0.61160   0.24049
H          H       0.05718   0.30676   0.30521   0.09347
H          H       0.82847   0.65483   0.32098   0.08809
H          H       0.01469   0.67320   0.07786   0.11861
H          H       0.21247   0.49545   0.93954   0.10723
H          H       0.37918   0.19791   0.19968   0.26653
H          H       0.68343   0.06981   0.00912   0.13269
H          H       0.44042   0.02550   0.10987   0.23934
H          H       0.69404   0.64668   0.67281   0.09327
H          H       0.79048   0.30022   0.72149   0.08803
H          H       0.74830   0.31395   0.96492   0.11487
H          H       0.63913   0.50798   0.07124   0.12068
H          H       0.85425   0.75417   0.75583   0.26590
H          H       0.52143   0.91810   0.92722   0.23199
H          H       0.82073   0.91201   0.93400   0.19989
C          C       0.08821   0.79260   0.43353   0.43064
C          C       0.01314   0.90733   0.37753  -0.07666
C          C       0.02810   0.92233   0.24190  -0.00692
C          C       0.89215   0.11759   0.26721   0.04562
C          C       0.87509   0.10859   0.40304  -0.10837
C          C       0.92679   0.00247   0.46222  -0.07166
C          C       0.31501   0.21684   0.53329   0.44253
C          C       0.29527   0.11167   0.61245  -0.08742
C          C       0.18558   0.11383   0.74846   0.03694
C          C       0.25405   0.91816   0.75752   0.07454
C          C       0.36770   0.90900   0.62255  -0.12778
C          C       0.38374   0.00680   0.54632  -0.05830
C          C       0.27925   0.28249   0.03350   0.44308
C          C       0.15542   0.38740   0.11318  -0.08742
C          C       0.04918   0.38488   0.24931   0.03845
C          C       0.92228   0.58054   0.25886   0.07476
C          C       0.02543   0.59009   0.12380  -0.12837
C          C       0.13853   0.49244   0.04730  -0.05757
C          C       0.63069   0.70661   0.93372   0.43104
C          C       0.67024   0.59178   0.87825  -0.07727
C          C       0.70158   0.57647   0.74260  -0.00690
C          C       0.75881   0.38134   0.76888   0.04605
C          C       0.73121   0.39065   0.90478  -0.10784
C          C       0.67699   0.49687   0.96349  -0.07169
N          N       0.96797   0.02601   0.18500  -0.12473
N          N       0.28992   0.72267   0.35253  -0.22786
N          N       0.35220   0.60589   0.37532  -0.44758
N          N       0.16186   0.01938   0.82247  -0.11288
N          N       0.31948   0.30811   0.60231  -0.24437
N          N       0.30961   0.41510   0.53754  -0.36501
N          N       0.93178   0.47918   0.32362  -0.11319
N          N       0.37712   0.19096   0.10172  -0.24288
N          N       0.47449   0.08432   0.03638  -0.36461
N          N       0.74475   0.47272   0.68617  -0.12555
N          N       0.76341   0.77623   0.85272  -0.22847
N          N       0.70854   0.89306   0.87502  -0.44716
O          O       0.97556   0.76345   0.54593  -0.51728
O          O       0.33154   0.21783   0.41082  -0.49589
O          O       0.29381   0.28206   0.91130  -0.49631
O          O       0.48792   0.73617   0.04575  -0.51763

