data_crystal

_audit_creation_method 'AiiDA-DDEC plugin'

_cell_length_a         4.39183
_cell_length_b        12.50703
_cell_length_c        10.30790

_cell_angle_alpha     103.44450
_cell_angle_beta     101.91577
_cell_angle_gamma     93.51313

_symmetry_space_group_name_Hall 'P 1'
_symmetry_space_group_name_H-M  'P 1'

loop_
_symmetry_equiv_pos_as_xyz
 'x,y,z'

loop_
_atom_site_label
_atom_site_type_symbol
_atom_site_fract_x
_atom_site_fract_y
_atom_site_fract_z
_atom_site_charge
Ni         Ni      0.40487   0.82521   0.95010   0.89260
Ni         Ni      0.59384   0.18375   0.07099   0.88483
Ni         Ni     -0.00454   0.00641   0.01188   0.78137
H          H       0.59041   0.91366   0.39971   0.06261
H          H       0.05339   0.81171   0.39097   0.09498
H          H       0.29039   0.93254   0.39523   0.07080
H          H       0.00312   0.11898   0.39507   0.11517
H          H       0.60200   0.10492   0.39306   0.11609
H          H       0.41893   0.51860   0.64642   0.06340
H          H       0.96559   0.45807   0.73156   0.11051
H          H       0.72530   0.54195   0.64809   0.06910
H          H      -0.00493   0.66983   0.51633   0.10626
H          H       0.39128   0.65610   0.51517   0.10866
H          H       0.39700   0.09606   0.62170   0.06152
H          H       0.93399   0.19806   0.63103   0.09524
H          H       0.69736   0.07718   0.62683   0.07143
H          H       0.98422   0.89097   0.62699   0.11503
H          H       0.38539   0.90483   0.62890   0.11512
H          H       0.58292   0.49008   0.37596   0.06240
H          H       0.03629   0.55052   0.29067   0.11050
H          H       0.27639   0.46660   0.37414   0.06967
H          H       0.00715   0.33888   0.50583   0.10729
H          H       0.61088   0.35239   0.50704   0.10877
C          C       0.80548   0.95221   0.37449  -0.07646
C          C       0.08328   0.90199   0.43298  -0.15378
C          C       0.82592   0.07799   0.43246  -0.18715
C          C       0.75075   0.92586   0.21927   0.61678
C          C       0.20636   0.56641   0.64178  -0.07884
C          C       0.92894   0.49073   0.63989  -0.15384
C          C       0.16911   0.61148   0.51311  -0.18448
C          C       0.28353   0.66101   0.76848   0.56949
C          C       0.18237   0.05766   0.64737  -0.07436
C          C       0.90426   0.10779   0.58903  -0.15482
C          C       0.16155   0.93185   0.58956  -0.18710
C          C       0.23893   0.08444   0.80266   0.61859
C          C       0.79536   0.44223   0.38048  -0.07682
C          C       0.07286   0.51787   0.38235  -0.15510
C          C       0.83288   0.39713   0.50910  -0.18553
C          C       0.71793   0.34768   0.25365   0.56939
O          O       0.50940   0.86036   0.14776  -0.50835
O          O       0.96612   0.97288   0.17824  -0.46984
O          O       0.53359   0.67116   0.86164  -0.47997
O          O       0.09700   0.73656   0.78319  -0.49810
O          O       0.48039   0.15005   0.87346  -0.50940
O          O       0.02488   0.03747   0.84447  -0.47034
O          O       0.46786   0.33806   0.16054  -0.47806
O          O       0.90384   0.27204   0.23891  -0.49938
O          O       0.36846   0.07853   0.11083  -0.58834
O          O       0.62102   0.93439   0.91435  -0.59754

