data_crystal

_audit_creation_method 'AiiDA-DDEC plugin'

_cell_length_a         4.46458
_cell_length_b         9.47181
_cell_length_c        15.95351

_cell_angle_alpha     117.04386
_cell_angle_beta     99.15880
_cell_angle_gamma     87.33516

_symmetry_space_group_name_Hall 'P 1'
_symmetry_space_group_name_H-M  'P 1'

loop_
_symmetry_equiv_pos_as_xyz
 'x,y,z'

loop_
_atom_site_label
_atom_site_type_symbol
_atom_site_fract_x
_atom_site_fract_y
_atom_site_fract_z
_atom_site_charge
Mn         Mn     -0.00002  -0.00005   0.00008   0.84701
H          H       0.84585   0.48621   0.49361   0.06394
H          H       0.50760   0.37894   0.89873   0.11850
H          H       0.24893   0.39862   0.11144   0.10615
H          H       0.41004   0.92685   0.81650   0.09956
H          H       0.28838   0.76626   0.64158   0.12405
H          H       0.12811   0.52679   0.65320   0.12100
H          H       0.21647   0.69779   0.82728   0.08844
H          H       0.15393   0.51372   0.50651   0.06375
H          H       0.49242   0.62090   0.10139   0.11873
H          H       0.75105   0.60124   0.88869   0.10642
H          H       0.58991   0.07305   0.18366   0.09892
H          H       0.71151   0.23371   0.35858   0.12429
H          H       0.87182   0.47318   0.34689   0.12088
H          H       0.78352   0.30211   0.17281   0.08868
C          C       0.47975   0.18026   0.97646   0.41752
C          C       0.86334   0.37523   0.00679   0.22749
C          C       0.71092   0.43946   0.94769  -0.15880
C          C       0.14477   0.44029   0.06084  -0.20206
C          C       0.56505   0.83667   0.77781   0.09141
C          C       0.49506   0.74367   0.67930  -0.16702
C          C       0.69264   0.62582   0.63089   0.09525
C          C       0.63430   0.52501   0.52798  -0.11645
C          C       0.95748   0.61138   0.68587  -0.17630
C          C       0.01307   0.70985   0.78383   0.09780
C          C       0.52021   0.81961   0.02367   0.41749
C          C       0.13665   0.62463   0.99333   0.22740
C          C       0.28909   0.56038   0.05243  -0.15872
C          C       0.85523   0.55956   0.93929  -0.20244
C          C       0.43489   0.16323   0.22233   0.09254
C          C       0.50483   0.25627   0.32084  -0.16687
C          C       0.30722   0.37411   0.36924   0.09527
C          C       0.36550   0.47493   0.47215  -0.11635
C          C       0.04242   0.38855   0.31424  -0.17683
C          C       0.98687   0.29005   0.21628   0.09736
N          N       0.27348   0.08372   0.94304  -0.61928
N          N       0.74121   0.24854   0.01307  -0.39179
N          N       0.81805   0.82035   0.83088  -0.24292
N          N       0.72648   0.91615   0.05709  -0.61899
N          N       0.25878   0.75132   0.98706  -0.39197
N          N       0.18189   0.17953   0.16925  -0.24304

