data_crystal

_audit_creation_method 'AiiDA-DDEC plugin'

_cell_length_a         9.80996
_cell_length_b        11.35839
_cell_length_c        11.34818

_cell_angle_alpha     112.25087
_cell_angle_beta     106.82409
_cell_angle_gamma     106.55967

_symmetry_space_group_name_Hall 'P 1'
_symmetry_space_group_name_H-M  'P 1'

loop_
_symmetry_equiv_pos_as_xyz
 'x,y,z'

loop_
_atom_site_label
_atom_site_type_symbol
_atom_site_fract_x
_atom_site_fract_y
_atom_site_fract_z
_atom_site_charge
Zn         Zn      0.62667   0.37611   0.75252   0.74408
Zn         Zn      0.87391   0.24612   0.62259   0.74410
Zn         Zn      0.25030   0.37761   0.62303   0.74618
Zn         Zn      0.37333   0.62389   0.24748   0.74410
Zn         Zn      0.12609   0.75388   0.37741   0.74406
Zn         Zn      0.74970   0.62239   0.37697   0.74616
H          H       0.63699   0.58973   0.61694   0.11720
H          H       0.02142   0.38292   0.97360   0.11914
H          H       0.04606   0.02725   0.41028   0.11956
H          H       0.47831   0.02604   0.61720   0.11658
H          H       0.45322   0.59178   0.97475   0.12207
H          H       0.86334   0.38290   0.40976   0.11678
H          H       0.36301   0.41026   0.38306   0.11729
H          H       0.97858   0.61708   0.02640   0.11914
H          H       0.95394   0.97274   0.58972   0.11958
H          H       0.52169   0.97395   0.38280   0.11644
H          H       0.54678   0.40822   0.02525   0.12206
H          H       0.13666   0.61709   0.59024   0.11673
C          C       0.69322   0.52310   0.58191   0.13876
C          C       0.11219   0.41817   0.94198   0.14002
C          C       0.16881   0.05873   0.47691   0.13675
C          C       0.38756   0.05815   0.58235   0.14138
C          C       0.33068   0.52458   0.94254   0.13600
C          C       0.80700   0.41769   0.47633   0.14015
C          C       0.30678   0.47690   0.41809   0.13903
C          C       0.88782   0.58183   0.05803   0.14006
C          C       0.83119   0.94127   0.52309   0.13690
C          C       0.61244   0.94184   0.41765   0.14120
C          C       0.66932   0.47542   0.05747   0.13600
C          C       0.19300   0.58231   0.52367   0.14005
N          N       0.71357   0.43629   0.63058  -0.19208
N          N       0.08354   0.36912   0.80606  -0.19170
N          N       0.27642   0.19431   0.56288  -0.19406
N          N       0.41687   0.19396   0.63080  -0.19179
N          N       0.22384   0.43766   0.80641  -0.19596
N          N       0.78636   0.36840   0.56257  -0.19311
N          N       0.28643   0.56371   0.36942  -0.19209
N          N       0.91646   0.63088   0.19395  -0.19180
N          N       0.72358   0.80568   0.43712  -0.19383
N          N       0.58313   0.80603   0.36920  -0.19176
N          N       0.77616   0.56234   0.19359  -0.19594
N          N       0.21364   0.63160   0.43743  -0.19338
N          N       0.75022   0.51492   0.48496  -0.29680
N          N       0.26581   0.51590   0.03133  -0.30038
N          N       0.23332   0.96960   0.48571  -0.29799
N          N       0.24978   0.48507   0.51504  -0.29668
N          N       0.73420   0.48410   0.96867  -0.30032
N          N       0.76669   0.03040   0.51430  -0.29816
F          F       0.74965   0.25325   0.74295  -0.57519
F          F       0.00571   0.25710   0.50990  -0.57419
F          F       0.49463   0.48987   0.74296  -0.57550
F          F       0.25035   0.74674   0.25705  -0.57526
F          F       0.99429   0.74289   0.49010  -0.57419
F          F       0.50538   0.51013   0.25704  -0.57542

