data_crystal

_audit_creation_method 'AiiDA-DDEC plugin'

_cell_length_a         5.44267
_cell_length_b         7.53931
_cell_length_c        15.09550

_cell_angle_alpha     82.40889
_cell_angle_beta     92.23756
_cell_angle_gamma     77.02630

_symmetry_space_group_name_Hall 'P 1'
_symmetry_space_group_name_H-M  'P 1'

loop_
_symmetry_equiv_pos_as_xyz
 'x,y,z'

loop_
_atom_site_label
_atom_site_type_symbol
_atom_site_fract_x
_atom_site_fract_y
_atom_site_fract_z
_atom_site_charge
Cd         Cd      0.67627   0.03294   0.70794   1.15437
Cd         Cd      0.83280   0.47016   0.22625   1.18815
Cd         Cd      0.32426   0.96694   0.28982   1.15591
Cd         Cd      0.16659   0.52959   0.77082   1.18896
P          P       0.72104   0.33735   0.83695   1.45963
P          P       0.86228   0.06428   0.36243   1.45110
P          P       0.27928   0.66181   0.16075   1.45649
P          P       0.13908   0.93619   0.63576   1.44781
H          H       0.81019   0.27256   0.98009   0.40200
H          H       0.79428   0.12231   0.49990   0.40098
H          H       0.18804   0.72827   0.01765   0.40209
H          H       0.20834   0.87882   0.49831   0.40082
C          C       0.27787   0.37456   0.54441   0.74633
C          C       0.33117   0.21070   0.07628   0.79021
C          C       0.72220   0.62522   0.45200   0.74594
C          C       0.66621   0.78724   0.92170   0.78968
O          O       0.61362   0.16915   0.82576  -0.80271
O          O       0.50708   0.50692   0.84847  -0.81415
O          O       0.88602   0.37857   0.76009  -0.78013
O          O       0.90518   0.29691   0.92792  -0.68081
O          O       0.36570   0.39172   0.61464  -0.39193
O          O       0.19683   0.35687   0.47409  -0.30864
O          O      -0.00344   0.21263   0.31594  -0.82423
O          O       0.08406   0.90041   0.40457  -0.77875
O          O       0.69950   0.00626   0.29190  -0.78955
O          O       0.69543   0.14075   0.43828  -0.69358
O          O       0.14551   0.23912   0.11492  -0.39831
O          O       0.51479   0.17840   0.03776  -0.33192
O          O       0.38847   0.82902   0.17252  -0.80300
O          O       0.49239   0.49219   0.14851  -0.81275
O          O       0.11443   0.62020   0.23754  -0.77914
O          O       0.09392   0.70383   0.07008  -0.68061
O          O       0.63468   0.60758   0.38180  -0.39154
O          O       0.80266   0.64353   0.52230  -0.30850
O          O       0.00378   0.78754   0.68140  -0.82303
O          O       0.91793   0.10066   0.59372  -0.77784
O          O       0.30129   0.99287   0.70697  -0.78750
O          O       0.30695   0.86056   0.55996  -0.69228
O          O       0.85394   0.75652   0.88436  -0.39733
O          O       0.48049   0.82187   0.95892  -0.33221

