data_crystal

_audit_creation_method 'AiiDA-DDEC plugin'

_cell_length_a         8.67896
_cell_length_b        13.70306
_cell_length_c        13.56081

_cell_angle_alpha     39.81808
_cell_angle_beta     70.13204
_cell_angle_gamma     68.81186

_symmetry_space_group_name_Hall 'P 1'
_symmetry_space_group_name_H-M  'P 1'

loop_
_symmetry_equiv_pos_as_xyz
 'x,y,z'

loop_
_atom_site_label
_atom_site_type_symbol
_atom_site_fract_x
_atom_site_fract_y
_atom_site_fract_z
_atom_site_charge
Cu         Cu      0.55450   0.01589   0.97287   0.23730
Cu         Cu      0.93861   0.02867   0.98531   0.24005
H          H       0.58135   0.66879   0.14806   0.13260
H          H       0.62001   0.46434   0.17842   0.10665
H          H       0.93830   0.84866   0.32946   0.13650
H          H       0.90215   0.81570   0.53386   0.11014
H          H       0.81122   0.16611   0.10545   0.11812
H          H       0.67804   0.26615   0.19736   0.10919
H          H       0.69524   0.88577   0.83903   0.11807
H          H       0.83727   0.80045   0.73063   0.10912
H          H       0.42632   0.33883   0.87845   0.26365
H          H       0.28743   0.51932   0.90140   0.09869
H          H       0.05190   0.12659   0.66050   0.26350
H          H       0.18726   0.11241   0.47828   0.10439
H          H       0.22411   0.91757   0.83989   0.23408
H          H       0.24291   0.72720   0.86851   0.10226
H          H       0.26900   0.15731   0.08487   0.23673
H          H       0.25163   0.12741   0.28302   0.10169
C          C       0.49064   0.75463   0.05867  -0.14113
C          C       0.54883   0.48015   0.11336  -0.13497
C          C       0.02202   0.93432   0.24745  -0.13323
C          C       0.96339   0.88300   0.51893  -0.14008
C          C       0.70560   0.17708   0.06877  -0.09666
C          C       0.58354   0.36657   0.12354  -0.14179
C          C       0.79344   0.92801   0.82553  -0.09287
C          C       0.92490   0.87714   0.62983  -0.13563
C          C       0.36623   0.50815   0.95869  -0.15137
C          C       0.11923   0.05107   0.48927  -0.15684
C          C       0.33533   0.62453   0.94416  -0.12507
C          C       0.15511   0.05886   0.37707  -0.12031
C          C       0.42960   0.61674   0.01792  -0.00045
C          C       0.41260   0.74029  -0.00215   0.11152
C          C       0.07731   0.97821   0.38478   0.00080
C          C       0.09604   0.99615   0.26185   0.11012
C          C       0.49790   0.37839   0.04157   0.02532
C          C       0.55223   0.27339   0.03453   0.06639
C          C       0.99644   0.96494   0.61712   0.02559
C          C       0.94016   0.96662   0.72835   0.06572
N          N       0.43877   0.90204   0.99213  -0.10591
N          N       0.31328   0.88308   0.90010  -0.14176
N          N       0.06713   0.00254   0.10053  -0.11277
N          N       0.18447   0.09674   0.11964  -0.13171
N          N       0.71498   0.09116   0.05064  -0.14221
N          N       0.46200   0.24490   0.98841  -0.23859
N          N       0.77906   0.95286   0.90712  -0.14054
N          N       0.02316   0.01656   0.75584  -0.23381
N          N       0.57167   0.12539   0.00369  -0.13004
N          N       0.91509   0.00402   0.87322  -0.12662
N          N       0.32835   0.98176   0.89512  -0.07413
N          N       0.16765   0.10222   0.02080  -0.07969

