data_crystal

_audit_creation_method 'AiiDA-DDEC plugin'

_cell_length_a         9.72314
_cell_length_b         9.33055
_cell_length_c         9.32310

_cell_angle_alpha     81.00572
_cell_angle_beta     71.67846
_cell_angle_gamma     71.73686

_symmetry_space_group_name_Hall 'P 1'
_symmetry_space_group_name_H-M  'P 1'

loop_
_symmetry_equiv_pos_as_xyz
 'x,y,z'

loop_
_atom_site_label
_atom_site_type_symbol
_atom_site_fract_x
_atom_site_fract_y
_atom_site_fract_z
_atom_site_charge
Ni         Ni      0.44750   0.18192   0.71037   0.92676
Ni         Ni      0.05112   0.29042   0.81836   0.92636
Ni         Ni      0.94888   0.70950   0.18179   0.92630
Ni         Ni      0.55257   0.81806   0.28987   0.92674
H          H       0.42900   0.57182   0.47108   0.09521
H          H       0.77056   0.97297   0.59457   0.10619
H          H       0.92848   0.47222   0.57234   0.09500
H          H       0.97823   0.97422   0.35430   0.12264
H          H       0.77780   0.84568   0.02698   0.37611
H          H       0.22221   0.15426   0.97313   0.37614
H          H       0.72386   0.97290   0.15489   0.37644
H          H       0.27191   0.59317   0.97227   0.10662
H          H       0.52081   0.64676   0.02654   0.12201
H          H       0.22952   0.02696   0.40566   0.10650
H          H       0.72811   0.40681   0.02793   0.10671
H          H       0.27615   0.02708   0.84519   0.37633
H          H       0.02179   0.02567   0.64587   0.12278
H          H       0.47922   0.35323   0.97366   0.12193
H          H       0.57116   0.42813   0.52918   0.09524
H          H       0.07152   0.52774   0.42785   0.09501
C          C       0.77107   0.34256   0.34724  -0.08869
C          C       0.11084   0.92199   0.61239  -0.15088
C          C       0.60998   0.61336   0.92276  -0.15097
C          C       0.00355   0.21040   0.14472   0.59046
C          C       0.83830   0.51799   0.67045   0.07009
C          C       0.27136   0.34603   0.34229  -0.08805
C          C       0.26295   0.26720   0.49688   0.59721
C          C       0.77376   0.07520   0.52129   0.11137
C          C       0.38870   0.29553   0.21149   0.03141
C          C       0.76342   0.49678   0.26804   0.59691
C          C       0.73707   0.73277   0.50332   0.59664
C          C       0.88809   0.21180   0.29662   0.03102
C          C       0.23667   0.50313   0.73216   0.59762
C          C       0.27482   0.52001   0.07465   0.11056
C          C       0.22631   0.92472   0.47893   0.11110
C          C       0.50449   0.14402   0.20988   0.58892
C          C       0.11196   0.78809   0.70355   0.03092
C          C       0.72866   0.65394   0.65790  -0.08789
C          C       0.88921   0.07791   0.38780  -0.15085
C          C       0.16171   0.48197   0.32975   0.06991
C          C       0.39004   0.38663   0.07744  -0.15019
C          C       0.61132   0.70446   0.78871   0.03166
C          C       0.72520   0.47997   0.92554   0.11115
C          C       0.49553   0.85597   0.79031   0.58940
C          C       0.33893   0.66982   0.51696   0.07089
C          C       0.66119   0.33011   0.48329   0.07050
C          C       0.99647   0.78949   0.85542   0.59022
C          C       0.22902   0.65736   0.65297  -0.08904
N          N       0.65860   0.19950   0.56781  -0.24234
N          N       0.34150   0.80044   0.43243  -0.24241
N          N       0.15956   0.56656   0.19906  -0.24141
N          N       0.84045   0.43340   0.80113  -0.24188
O          O       0.94611   0.24782   0.03321  -0.55169
O          O       0.85822   0.83202   0.86202  -0.49646
O          O       0.63177   0.58937   0.28579  -0.57274
O          O       0.61100   0.80603   0.47944  -0.52695
O          O       0.35742   0.86202   0.83137  -0.49626
O          O       0.86897   0.71458   0.41086  -0.57275
O          O       0.05389   0.75200   0.96695  -0.55144
O          O       0.55247   0.96783   0.75467  -0.55168
O          O       0.64261   0.13796   0.16866  -0.49587
O          O       0.75099   0.85598   0.14416  -0.79521
O          O       0.38904   0.19409   0.52081  -0.52711
O          O       0.13105   0.28525   0.58929  -0.57301
O          O       0.36832   0.41059   0.71459  -0.57289
O          O       0.11028   0.47960   0.80517  -0.52664
O          O       0.14181   0.16792   0.13809  -0.49662
O          O       0.24902   0.14399   0.85595  -0.79497
O          O       0.88977   0.52029   0.19487  -0.52639
O          O       0.44754   0.03217   0.24567  -0.55168

