data_crystal

_audit_creation_method 'AiiDA-DDEC plugin'

_cell_length_a         4.47472
_cell_length_b        12.79304
_cell_length_c        12.71822

_cell_angle_alpha     88.40487
_cell_angle_beta     79.81676
_cell_angle_gamma     79.63906

_symmetry_space_group_name_Hall 'P 1'
_symmetry_space_group_name_H-M  'P 1'

loop_
_symmetry_equiv_pos_as_xyz
 'x,y,z'

loop_
_atom_site_label
_atom_site_type_symbol
_atom_site_fract_x
_atom_site_fract_y
_atom_site_fract_z
_atom_site_charge
Cu         Cu      0.00003   0.49998   0.50000   0.80994
Cu         Cu     -0.00001  -0.00000   0.00000   0.91896
Cu         Cu      0.00001   0.50000   0.00000   0.92025
Cu         Cu      0.50000  -0.00000   0.50000   0.91897
H          H       0.34545   0.32346   0.67874   0.11733
H          H       0.34625   0.17634   0.82110   0.11770
H          H       0.16513   0.68036   0.17558   0.11711
H          H       0.01968   0.82249   0.32406   0.11737
H          H       0.65457   0.67654   0.32126   0.11750
H          H       0.65376   0.82365   0.17890   0.11789
H          H       0.83490   0.31963   0.82443   0.11728
H          H       0.98034   0.17750   0.67595   0.11760
C          C       0.58773   0.31036   0.69096  -0.12835
C          C       0.75861   0.38068   0.61838   0.57728
C          C       0.58841   0.18826   0.80905  -0.12645
C          C       0.75552   0.11767   0.88239   0.58398
C          C       0.39495   0.69194   0.18832  -0.12551
C          C       0.63625   0.61813   0.11773   0.58236
C          C       0.27423   0.80984   0.31160  -0.12719
C          C       0.37124   0.88279   0.38236   0.58395
C          C       0.41228   0.68963   0.30905  -0.12819
C          C       0.24143   0.61930   0.38163   0.57720
C          C       0.41160   0.81173   0.19096  -0.12667
C          C       0.24449   0.88233   0.11761   0.58437
C          C       0.60507   0.30805   0.81169  -0.12551
C          C       0.36377   0.38186   0.88227   0.58239
C          C       0.72579   0.19015   0.68841  -0.12719
C          C       0.62877   0.11720   0.61765   0.58379
O          O       0.96086   0.42757   0.64780  -0.47725
O          O       0.70490   0.39684   0.52307  -0.49442
O          O       0.03666   0.07100   0.85378  -0.50479
O          O       0.61950   0.10172   0.97733  -0.52969
O          O       0.88850   0.64596   0.07080  -0.50433
O          O       0.59626   0.52355   0.10201  -0.52940
O          O       0.60427   0.85384   0.42942  -0.50299
O          O       0.22139   0.97781   0.39808  -0.53098
O          O       0.03917   0.57242   0.35220  -0.47756
O          O       0.29517   0.60312   0.47693  -0.49404
O          O       0.96334   0.92899   0.14622  -0.50512
O          O       0.38050   0.89827   0.02268  -0.52988
O          O       0.11153   0.35403   0.92920  -0.50444
O          O       0.40375   0.47644   0.89800  -0.52943
O          O       0.39574   0.14616   0.57059  -0.50333
O          O       0.77862   0.02218   0.60193  -0.53054

