data_crystal

_audit_creation_method 'AiiDA-DDEC plugin'

_cell_length_a         4.47027
_cell_length_b        11.74592
_cell_length_c        17.82375

_cell_angle_alpha     100.97688
_cell_angle_beta     89.42105
_cell_angle_gamma     88.04093

_symmetry_space_group_name_Hall 'P 1'
_symmetry_space_group_name_H-M  'P 1'

loop_
_symmetry_equiv_pos_as_xyz
 'x,y,z'

loop_
_atom_site_label
_atom_site_type_symbol
_atom_site_fract_x
_atom_site_fract_y
_atom_site_fract_z
_atom_site_charge
Zn         Zn      0.25909   0.60915   0.00066   0.95298
Zn         Zn      0.19616   0.92511   0.55221   0.98703
Zn         Zn      0.75386   0.39083  -0.00066   0.95307
Zn         Zn      0.81669   0.07490   0.44779   0.98708
H          H       0.68410   0.27892   0.80797   0.11482
H          H       0.72320   0.17408   0.67295   0.11296
H          H       0.78734   0.51969   0.82138   0.11184
H          H       0.43228   0.56580   0.72523   0.10593
H          H       0.48739   0.46775   0.59004   0.11183
H          H       0.90126   0.32529   0.54882   0.11437
H          H       0.28848   0.78503   0.71225   0.11491
H          H       0.29655   0.70901   0.83414   0.11121
H          H       0.10828   0.04099   0.73058   0.10773
H          H       0.47417   0.10843   0.82952   0.10206
H          H       0.48823   0.03135   0.94849   0.10734
H          H       0.13667   0.88150   0.96976   0.10935
H          H       0.32863   0.72107   0.19200   0.11512
H          H       0.28945   0.82592   0.32702   0.11279
H          H       0.22532   0.48025   0.17864   0.11213
H          H       0.58050   0.43426   0.27480   0.10596
H          H       0.52546   0.53242   0.40998   0.11193
H          H       0.11139   0.67479   0.45118   0.11413
H          H       0.72431   0.21500   0.28777   0.11485
H          H       0.71628   0.29103   0.16588   0.11121
H          H       0.90446   0.95907   0.26944   0.10779
H          H       0.53864   0.89160   0.17048   0.10218
H          H       0.52465   0.96866   0.05150   0.10743
H          H       0.87619   0.11852   0.03025   0.10952
C          C       0.26629   0.36762   0.79291  -0.10303
C          C       0.08663   0.33815   0.66061   0.03456
C          C       0.05243   0.39486   0.74124   0.03827
C          C       0.53855   0.23601   0.69084  -0.07783
C          C       0.32914   0.17523   0.56244   0.63882
C          C       0.21326   0.40413   0.87747   0.63893
C          C       0.32159   0.25469   0.63906  -0.09155
C          C       0.87986   0.36679   0.60855  -0.14493
C          C       0.51466   0.29532   0.76753  -0.07548
C          C       0.81226   0.47541   0.76231  -0.12853
C          C       0.64964   0.44893   0.63141  -0.06615
C          C       0.61780   0.50426   0.70787  -0.07223
C          C       0.68054   0.88499   0.73902  -0.09251
C          C       0.90573   0.87839   0.86417   0.03433
C          C       0.89628   0.92543   0.79363   0.03367
C          C       0.46449   0.76909   0.82313  -0.07805
C          C       0.72595   0.72585   0.93575   0.62619
C          C       0.70557   0.90891   0.65958   0.62502
C          C       0.69405   0.79718   0.87474  -0.10486
C          C       0.12585   0.91628   0.91758  -0.13911
C          C       0.45973   0.81196   0.75428  -0.09053
C          C       0.10681   0.00636   0.78290  -0.13832
C          C       0.32065   0.00154   0.90645  -0.07090
C          C       0.31186   0.04594   0.83911  -0.06208
C          C       0.74646   0.63237   0.20708  -0.10215
C          C       0.92605   0.66188   0.33938   0.03507
C          C       0.96027   0.60514   0.25876   0.03770
C          C       0.47414   0.76400   0.30913  -0.07796
C          C       0.68360   0.82478   0.43755   0.63911
C          C       0.79958   0.59587   0.12252   0.63875
C          C       0.69109   0.74534   0.36092  -0.09114
C          C       0.13281   0.63326   0.39145  -0.14541
C          C       0.49807   0.70469   0.23245  -0.07609
C          C       0.20042   0.52457   0.23771  -0.12869
C          C       0.36312   0.55117   0.36861  -0.06628
C          C       0.39493   0.49579   0.29215  -0.07205
C          C       0.33225   0.11504   0.26099  -0.09211
C          C       0.10711   0.12164   0.13583   0.03461
C          C       0.11651   0.07461   0.20638   0.03333
C          C       0.54834   0.23094   0.17689  -0.07816
C          C       0.28697   0.27416   0.06425   0.62629
C          C       0.30722   0.09110   0.34042   0.62537
C          C       0.31883   0.20283   0.12527  -0.10486
C          C       0.88700   0.08375   0.08243  -0.13927
C          C       0.55307   0.18807   0.24574  -0.09056
C          C       0.90595   0.99369   0.21711  -0.13833
C          C       0.69219  -0.00151   0.09355  -0.07056
C          C       0.70093   0.95410   0.16089  -0.06269
O          O       0.98623   0.36096   0.90292  -0.50884
O          O       0.40266   0.46946   0.91837  -0.58417
O          O       0.54194   0.18466   0.51711  -0.51155
O          O       0.11869   0.10031   0.54886  -0.60274
O          O       0.93341   0.85985   0.62051  -0.54129
O          O       0.50146   0.97136   0.63631  -0.56209
O          O       0.51940   0.73555   0.98728  -0.53604
O          O       0.95014   0.65429   0.92789  -0.55148
O          O       0.02663   0.63905   0.09708  -0.50863
O          O       0.61022   0.53053   0.08162  -0.58421
O          O       0.47081   0.81533   0.48287  -0.51192
O          O       0.89409   0.89969   0.45112  -0.60280
O          O       0.07940   0.14016   0.37950  -0.54190
O          O       0.51129   0.02864   0.36369  -0.56201
O          O       0.49352   0.26445   0.01272  -0.53580
O          O       0.06280   0.34572   0.07211  -0.55171

