data_crystal

_audit_creation_method 'AiiDA-DDEC plugin'

_cell_length_a        11.71016
_cell_length_b        11.83442
_cell_length_c        14.21159

_cell_angle_alpha     67.38989
_cell_angle_beta     68.35986
_cell_angle_gamma     81.38568

_symmetry_space_group_name_Hall 'P 1'
_symmetry_space_group_name_H-M  'P 1'

loop_
_symmetry_equiv_pos_as_xyz
 'x,y,z'

loop_
_atom_site_label
_atom_site_type_symbol
_atom_site_fract_x
_atom_site_fract_y
_atom_site_fract_z
_atom_site_charge
In         In      0.00014   0.00012   0.50029   1.49413
In         In      0.00002   0.00029   0.00033   1.49687
In         In      0.97435   0.02312   0.25039   1.50979
In         In      0.02533   0.97668   0.75033   1.51006
H          H       0.84674   0.91848   0.45154   0.37475
H          H       0.08337   0.15043   0.04960   0.37695
H          H       0.15341   0.08160   0.54943   0.37475
H          H       0.91670   0.84985   0.95145   0.37709
C          C       0.10149   0.25638   0.41490   0.62259
C          C       0.08211   0.39164   0.36186  -0.20274
C          C       0.96369   0.44289   0.38503   0.15380
C          C       0.94498   0.56825   0.33758   0.16519
C          C       0.04391   0.64546   0.26332  -0.21662
C          C       0.16224   0.59433   0.23964   0.16501
C          C       0.18100   0.46940   0.28961   0.16343
C          C       0.02373   0.78012   0.21350   0.65141
C          C       0.74147   0.89936   0.08645   0.62302
C          C       0.60593   0.91781   0.14005  -0.20325
C          C       0.55485   0.03610   0.11606   0.15397
C          C       0.43000   0.05602   0.16397   0.16670
C          C       0.35264   0.95797   0.23983  -0.21874
C          C       0.40297   0.83964   0.26376   0.16546
C          C       0.52740   0.81974   0.21328   0.16312
C          C       0.21843   0.97890   0.29004   0.65024
C          C       0.89873   0.74386   0.58652   0.62367
C          C       0.91798   0.60860   0.63963  -0.20378
C          C       0.03641   0.55732   0.61695   0.15448
C          C       0.05499   0.43176   0.66333   0.16499
C          C       0.95598   0.35449   0.73712  -0.21683
C          C       0.83767   0.40568   0.76074   0.16422
C          C       0.81895   0.53067   0.71102   0.16434
C          C       0.97611   0.21984   0.78695   0.65200
C          C       0.25869   0.10086   0.91508   0.62410
C          C       0.39421   0.08224   0.86144  -0.20423
C          C       0.44513   0.96389   0.88458   0.15389
C          C       0.56993   0.94404   0.83640   0.16658
C          C       0.64719   0.04217   0.76061  -0.21793
C          C       0.59694   0.16056   0.73710   0.16529
C          C       0.47275   0.18044   0.78859   0.16317
C          C       0.78141   0.02123   0.71038   0.64882
O          O       0.03865   0.18876   0.39821  -0.58995
O          O       0.17117   0.22130   0.46939  -0.48181
O          O       0.06550   0.83087   0.11179  -0.54737
O          O       0.96486   0.83238   0.28245  -0.57528
O          O       0.88089   0.00557   0.40871  -0.83073
O          O       0.81085   0.96102   0.10277  -0.59611
O          O       0.77532   0.83207   0.03160  -0.48069
O          O       0.16961   0.93539   0.39181  -0.54412
O          O       0.16428   0.04023   0.22134  -0.57682
O          O       0.99547   0.11767   0.09016  -0.82986
O          O       0.96168   0.81161   0.60295  -0.59072
O          O       0.82905   0.77887   0.53201  -0.48239
O          O       0.93444   0.16929   0.88870  -0.54707
O          O       0.03491   0.16748   0.71810  -0.57561
O          O       0.11927   0.99447   0.59202  -0.83059
O          O       0.18924   0.03964   0.89838  -0.59622
O          O       0.22489   0.16798   0.97007  -0.48130
O          O       0.83036   0.06477   0.60865  -0.54327
O          O       0.83544   0.95983   0.77919  -0.57651
O          O       0.00447   0.88283   0.91059  -0.83028
F          F       0.86572   0.37189   0.45572  -0.08981
F          F       0.82981   0.61416   0.36136  -0.08400
F          F       0.25992   0.66633   0.17071  -0.09182
F          F       0.29608   0.42368   0.26550  -0.08694
F          F       0.62552   0.13345   0.04367  -0.09095
F          F       0.38516   0.17130   0.13882  -0.08351
F          F       0.33026   0.74276   0.33340  -0.09261
F          F       0.57085   0.70406   0.23824  -0.08742
F          F       0.13467   0.62841   0.54767  -0.08970
F          F       0.17014   0.38586   0.63886  -0.08390
F          F       0.73997   0.33359   0.82932  -0.09177
F          F       0.70381   0.57630   0.73458  -0.08704
F          F       0.37441   0.86642   0.95645  -0.09060
F          F       0.61481   0.82875   0.86116  -0.08381
F          F       0.66961   0.25731   0.66690  -0.09237
F          F       0.42925   0.29609   0.76516  -0.08679

