data_crystal

_audit_creation_method 'AiiDA-DDEC plugin'

_cell_length_a         7.06147
_cell_length_b         9.86821
_cell_length_c        12.27548

_cell_angle_alpha     96.24862
_cell_angle_beta     73.15349
_cell_angle_gamma     87.34500

_symmetry_space_group_name_Hall 'P 1'
_symmetry_space_group_name_H-M  'P 1'

loop_
_symmetry_equiv_pos_as_xyz
 'x,y,z'

loop_
_atom_site_label
_atom_site_type_symbol
_atom_site_fract_x
_atom_site_fract_y
_atom_site_fract_z
_atom_site_charge
Co         Co      0.99141   0.50415   0.49589   1.10232
Co         Co      0.48579   0.50669   0.50833   1.07865
H          H       0.95093   0.14077   0.54846   0.11248
H          H       0.40115   0.13904   0.71991   0.10032
H          H       0.43679   0.27736   0.06028   0.12981
H          H       0.32963   0.28764   0.27543   0.14383
H          H       0.37901   0.88795   0.72854   0.10303
H          H       0.92640   0.89082   0.55899   0.11425
H          H       0.48940   0.71458   0.10849   0.13206
H          H       0.37438   0.70369   0.32089   0.14495
H          H       0.10084   0.83563   0.28579   0.09729
H          H       0.47103   0.90290   0.44225   0.10857
H          H       0.48314   0.71635   0.94036   0.13016
H          H       0.59530   0.70494   0.72493   0.14282
H          H       0.49049   0.15236   0.42863   0.11397
H          H       0.12121   0.08645   0.27589   0.10353
H          H       0.61119   0.27579   0.89323   0.13192
H          H       0.70528   0.28562   0.68091   0.13940
C          C       0.17546   0.15623   0.63479  -0.02719
C          C       0.03833   0.08606   0.59203  -0.11442
C          C       0.29490   0.08467   0.68686  -0.11059
C          C       0.20111   0.30168   0.61142   0.59375
C          C       0.42812   0.37467   0.11289  -0.16308
C          C       0.36868   0.37575   0.23040   0.01636
C          C       0.15020   0.87362   0.64497  -0.03664
C          C       0.28212   0.94464   0.69188  -0.10552
C          C       0.02522   0.94648   0.59732  -0.10404
C          C       0.15586   0.72060   0.62950   0.59499
C          C       0.45303   0.61716   0.13948  -0.16104
C          C       0.38948   0.61584   0.25681   0.00897
C          C       0.78526   0.85294   0.36488  -0.03937
C          C       0.96763   0.90552   0.31494  -0.10648
C          C       0.61193   0.94229   0.40149  -0.10888
C          C       0.77561   0.70860   0.39362   0.59493
C          C       0.53368   0.61810   0.88797  -0.16397
C          C       0.59229   0.61631   0.77025   0.01414
C          C       0.80635   0.13575   0.35256  -0.03035
C          C       0.62248   0.08191   0.39442  -0.10801
C          C       0.97850   0.04546   0.30931  -0.11232
C          C       0.81308   0.28817   0.37100   0.59335
C          C       0.60028   0.37386   0.86200  -0.16864
C          C       0.65501   0.37484   0.74468   0.02647
C          C       0.47278   0.49617   0.06315   0.07987
C          C       0.53590   0.49615   0.93798   0.08492
N          N       0.34858   0.49575   0.29988   0.35176
N          N       0.64986   0.49535   0.70128   0.34854
O          O       0.04871   0.36679   0.60115  -0.59983
O          O       0.37367   0.34411   0.59767  -0.58404
O          O       0.31162   0.65268   0.63394  -0.59705
O          O       0.00667   0.66955   0.60677  -0.58955
O          O       0.93795   0.64326   0.38982  -0.59145
O          O       0.60152   0.66687   0.42551  -0.59587
O          O       0.65462   0.36110   0.37888  -0.59599
O          O       0.97339   0.33292   0.38368  -0.59130
O          O       0.28680   0.49464   0.41339  -0.51441
O          O       0.70224   0.49403   0.58746  -0.51741

