data_crystal

_audit_creation_method 'AiiDA-DDEC plugin'

_cell_length_a         8.30002
_cell_length_b        10.25404
_cell_length_c        13.34950

_cell_angle_alpha     58.53862
_cell_angle_beta     75.29308
_cell_angle_gamma     82.26082

_symmetry_space_group_name_Hall 'P 1'
_symmetry_space_group_name_H-M  'P 1'

loop_
_symmetry_equiv_pos_as_xyz
 'x,y,z'

loop_
_atom_site_label
_atom_site_type_symbol
_atom_site_fract_x
_atom_site_fract_y
_atom_site_fract_z
_atom_site_charge
Zn         Zn      0.94339   0.39005   0.17446   0.86777
Zn         Zn      0.05660   0.60994   0.82555   0.86785
H          H       0.22650   0.17562   0.10843   0.10557
H          H       0.52369   0.25057   0.28822   0.14562
H          H       0.21420   0.39522   0.30411   0.13027
H          H       0.65836   0.15081   0.13249   0.10500
H          H       0.55169   0.98438   0.25277   0.10704
H          H       0.34003   0.86357   0.30619   0.12320
H          H       0.25337   0.74782   0.27187   0.13971
H          H       0.45510   0.70795   0.30097   0.12582
H          H       0.62049   0.33384   0.97296   0.13138
H          H       0.75609   0.32303   0.85166   0.13080
H          H       0.54927   0.38767   0.84277   0.13983
H          H       0.90366   0.98437   0.19810   0.11555
H          H       0.08157   0.25281   0.81498   0.12151
H          H       0.78256   0.60398   0.44728   0.11937
H          H       0.45790   0.32863   0.42924   0.10818
H          H       0.77350   0.82437   0.89157   0.10544
H          H       0.47630   0.74942   0.71178   0.14571
H          H       0.78579   0.60477   0.69589   0.13037
H          H       0.34163   0.84919   0.86751   0.10518
H          H       0.44831   0.01561   0.74723   0.10689
H          H       0.65997   0.13641   0.69381   0.12331
H          H       0.74662   0.25218   0.72813   0.13957
H          H       0.54489   0.29203   0.69903   0.12579
H          H       0.37951   0.66615   0.02704   0.13145
H          H       0.24391   0.67696   0.14834   0.13089
H          H       0.45072   0.61232   0.15724   0.13993
H          H       0.09632   0.01562   0.80191   0.11556
H          H       0.91841   0.74718   0.18504   0.12169
H          H       0.21742   0.39600   0.55273   0.11947
H          H       0.54208   0.67135   0.57077   0.10808
C          C       0.26021   0.21602   0.16063   0.09298
C          C       0.41379   0.25461   0.25677  -0.11757
C          C       0.26333   0.32784   0.26209  -0.03049
C          C       0.54169   0.08775   0.16685  -0.11359
C          C       0.51295   0.04555   0.07990  -0.04622
C          C       0.44026   0.90344   0.12501   0.05718
C          C       0.56809   0.14453   0.95519   0.06249
C          C       0.36937   0.80156   0.25738  -0.42056
C          C       0.62717   0.30434   0.90421  -0.42540
C          C       0.98165   0.27321   0.01457   0.57229
C          C       0.99114   0.13187   0.00731  -0.03570
C          C       0.94475   0.98998   0.11183  -0.09794
C          C       0.04739   0.14153   0.89520  -0.08582
C          C       0.77831   0.43132   0.35184   0.55166
C          C       0.63445   0.46289   0.43066  -0.02257
C          C       0.65810   0.55972   0.47072  -0.10197
C          C       0.47530   0.40332   0.46075  -0.10515
C          C       0.73978   0.78397   0.83937   0.09291
C          C       0.58620   0.74537   0.74323  -0.11746
C          C       0.73667   0.67215   0.73791  -0.03051
C          C       0.45831   0.91224   0.83315  -0.11360
C          C       0.48705   0.95444   0.92011  -0.04599
C          C       0.55974   0.09655   0.87500   0.05718
C          C       0.43191   0.85546   0.04482   0.06255
C          C       0.63063   0.19843   0.74262  -0.42074
C          C       0.37283   0.69565   0.09579  -0.42540
C          C       0.01834   0.72677   0.98544   0.57217
C          C       0.00884   0.86812   0.99270  -0.03559
C          C       0.05524   0.01001   0.88819  -0.09797
C          C       0.95260   0.85845   0.10482  -0.08577
C          C       0.22167   0.56866   0.64816   0.55159
C          C       0.36553   0.53708   0.56934  -0.02270
C          C       0.34188   0.44025   0.52928  -0.10186
C          C       0.52468   0.59666   0.53926  -0.10530
N          N       0.16873   0.30369   0.20127  -0.30723
N          N       0.40871   0.18403   0.19281   0.06836
N          N       0.83126   0.69630   0.79873  -0.30723
N          N       0.59128   0.81595   0.80719   0.06827
O          O       0.88379   0.27136   0.10674  -0.54418
O          O       0.07609   0.38357   0.93085  -0.55423
O          O       0.74323   0.35979   0.30280  -0.56379
O          O       0.92148   0.47754   0.33250  -0.54944
O          O       0.11619   0.72863   0.89327  -0.54431
O          O       0.92390   0.61642   0.06916  -0.55395
O          O       0.25676   0.64020   0.69721  -0.56409
O          O       0.07850   0.52245   0.66750  -0.54910

