data_crystal

_audit_creation_method 'AiiDA-DDEC plugin'

_cell_length_a        10.38827
_cell_length_b        10.57108
_cell_length_c        10.57107

_cell_angle_alpha     111.46183
_cell_angle_beta     110.22847
_cell_angle_gamma     110.17180

_symmetry_space_group_name_Hall 'P 1'
_symmetry_space_group_name_H-M  'P 1'

loop_
_symmetry_equiv_pos_as_xyz
 'x,y,z'

loop_
_atom_site_label
_atom_site_type_symbol
_atom_site_fract_x
_atom_site_fract_y
_atom_site_fract_z
_atom_site_charge
Zn         Zn      0.23388   0.85545   0.90635   0.72554
Zn         Zn      0.73404   0.90709   0.85477   0.72479
H          H       0.90717   0.00722   0.58571   0.08034
H          H       0.38402   0.22209   0.69409   0.08077
H          H       0.43006   0.05420   0.79844   0.09053
H          H       0.91883   0.51393   0.23522   0.07569
H          H       0.18469   0.77625   0.51108   0.10817
H          H       0.01792   0.41458   0.27055   0.07143
H          H       0.95167   0.61046   0.50792   0.10763
H          H       0.03165   0.49161   0.53137   0.11643
H          H       0.26428   0.01658   0.22762   0.07741
H          H       0.24828   0.96067   0.43373   0.10772
H          H       0.27769   0.66804   0.48226   0.12422
H          H       0.13424   0.48426   0.12668   0.10679
H          H       0.15970   0.56156   0.93536   0.10212
H          H       0.39747   0.22235   0.04873   0.08155
H          H       0.66945   0.47287   0.24538   0.12081
H          H       0.83576   0.19649   0.38949   0.12744
H          H       0.55075   0.95510   0.18692   0.08470
H          H       0.40791   0.58760   0.00733   0.08029
H          H       0.88470   0.69544   0.22223   0.08002
H          H       0.93056   0.79931   0.05407   0.09097
H          H       0.41909   0.23646   0.51314   0.07517
H          H       0.68421   0.51193   0.77617   0.10768
H          H       0.51883   0.27222   0.41449   0.07195
H          H       0.45203   0.50933   0.60985   0.10794
H          H       0.53190   0.53255   0.49093   0.11622
H          H       0.76206   0.22700   0.01531   0.07775
H          H       0.74594   0.43333   0.95982   0.10771
H          H       0.77809   0.48396   0.66879   0.12396
H          H       0.63664   0.12931   0.48476   0.10658
H          H       0.66165   0.93744   0.56152   0.10176
H          H       0.89822   0.04965   0.22182   0.08128
H          H       0.17013   0.24671   0.47240   0.12189
H          H       0.33554   0.39068   0.19562   0.12820
H          H       0.05054   0.18766   0.95412   0.08516
C          C       0.05388   0.93883   0.70900  -0.04001
C          C       0.02615   0.02184   0.63561   0.04622
C          C       0.28715   0.13677   0.69282  -0.05080
C          C       0.31505   0.04779   0.75492   0.02470
C          C       0.94361   0.85354   0.74622   0.49479
C          C       0.58325   0.07223   0.20394   0.06839
C          C       0.74149   0.20712   0.31629  -0.19933
C          C       0.77935   0.35629   0.33554   0.16824
C          C       0.65100   0.36183   0.23865  -0.18906
C          C       0.49710   0.22173   0.12774   0.07896
C          C       0.17832   0.64567   0.04745   0.08117
C          C       0.16608   0.60477   0.15548  -0.19605
C          C       0.19348   0.71790   0.29978   0.16943
C          C       0.22893   0.86896   0.32536  -0.19677
C          C       0.23814   0.90074   0.21112   0.08161
C          C       0.95065   0.50172   0.44150  -0.21215
C          C       0.01167   0.51947   0.33130  -0.13072
C          C       0.17582   0.67697   0.41756  -0.21054
C          C       0.55444   0.71023   0.93859  -0.03903
C          C       0.52682   0.63719   0.02184   0.04546
C          C       0.78782   0.69415   0.13683  -0.05010
C          C       0.81556   0.75597   0.04762   0.02436
C          C       0.44405   0.74746   0.85318   0.49540
C          C       0.08328   0.20479   0.07138   0.06718
C          C       0.24149   0.31742   0.20633  -0.20077
C          C       0.27962   0.33677   0.35563   0.16956
C          C       0.15153   0.23983   0.36124  -0.19022
C          C      -0.00240   0.12870   0.22109   0.08052
C          C       0.67943   0.04907   0.64548   0.08094
C          C       0.66739   0.15736   0.60488  -0.19581
C          C       0.69354   0.30093   0.71780   0.16769
C          C       0.72758   0.32554   0.86831  -0.19625
C          C       0.73683   0.21118   0.89985   0.08035
C          C       0.45099   0.44282   0.50112  -0.21216
C          C       0.51210   0.33268   0.51912  -0.13180
C          C       0.67594   0.41885   0.67707  -0.20790
N          N       0.13777   0.12109   0.62502  -0.29350
N          N       0.20071   0.94591   0.76308  -0.29743
N          N       0.46103   0.07781   0.10881  -0.25721
N          N       0.21521   0.79235   0.07483  -0.21952
N          N       0.63849   0.62662   0.12122  -0.29289
N          N       0.70121   0.76411   0.94564  -0.29787
N          N       0.96131   0.10959   0.07702  -0.25716
N          N       0.71515   0.07563   0.79172  -0.21854
O          O       0.80474   0.84215   0.69923  -0.56313
O          O       0.99327   0.79897   0.83081  -0.54670
O          O       0.30516   0.70038   0.84165  -0.56386
O          O       0.49365   0.83206   0.79870  -0.54628

