data_crystal

_audit_creation_method 'AiiDA-DDEC plugin'

_cell_length_a         8.53346
_cell_length_b         8.53414
_cell_length_c        15.19589

_cell_angle_alpha     89.98054
_cell_angle_beta     90.02160
_cell_angle_gamma     88.54712

_symmetry_space_group_name_Hall 'P 1'
_symmetry_space_group_name_H-M  'P 1'

loop_
_symmetry_equiv_pos_as_xyz
 'x,y,z'

loop_
_atom_site_label
_atom_site_type_symbol
_atom_site_fract_x
_atom_site_fract_y
_atom_site_fract_z
_atom_site_charge
Cd         Cd      0.02906   0.97090   0.67451   0.72717
Cd         Cd      0.64417   0.35580   0.80739   0.80905
Cd         Cd      0.33598   0.66398   0.73474   0.70532
Cd         Cd      0.97103   0.02899   0.17474   0.72655
Cd         Cd      0.35596   0.64407   0.30738   0.80915
Cd         Cd      0.66415   0.33589   0.23490   0.70534
H          H       0.71378   0.73284   0.73852   0.08990
H          H       0.05682   0.41309   0.83149   0.10455
H          H       0.28636   0.26698   0.23873   0.08968
H          H       0.94345   0.58667   0.33163   0.10412
H          H       0.73306   0.71373   0.23877   0.08977
H          H       0.41325   0.05661   0.33158   0.10417
H          H       0.26710   0.28613   0.73857   0.08980
H          H       0.58700   0.94313   0.83144   0.10449
H          H       0.41057   0.58938   0.51367   0.11177
H          H       0.07378   0.92622   0.43133   0.10554
H          H       0.58940   0.41066   0.01377   0.11151
H          H       0.92614   0.07385   0.93159   0.10629
C          C       0.82530   0.67836   0.75640   0.14125
C          C      -0.00086   0.51501   0.80232   0.14324
C          C       0.17487   0.32145   0.25660   0.14231
C          C       0.00109   0.48476   0.30248   0.14345
C          C       0.67856   0.82521   0.25662   0.14251
C          C       0.51519  -0.00102   0.30245   0.14331
C          C       0.32162   0.17462   0.75642   0.14145
C          C       0.48504   0.00080   0.80229   0.14325
C          C       0.31961   0.68035   0.51382   0.13808
C          C       0.14893   0.85105   0.47156   0.13035
C          C       0.68035   0.31969   0.01396   0.13815
C          C       0.85101   0.14900   0.97178   0.12994
N          N       0.96377   0.74211   0.74020  -0.21180
N          N       0.07633   0.63622   0.76974  -0.19972
N          N       0.84184   0.53628   0.79521  -0.32367
N          N       0.03638   0.25768   0.24044  -0.21168
N          N       0.92385   0.36354   0.26996  -0.20020
N          N       0.15837   0.46351   0.29536  -0.32383
N          N       0.74232   0.96369   0.24046  -0.21210
N          N       0.63642   0.07621   0.26994  -0.20011
N          N       0.53647   0.84170   0.29535  -0.32380
N          N       0.25788   0.03616   0.74022  -0.21197
N          N       0.36381   0.92361   0.76973  -0.19973
N          N       0.46374   0.15809   0.79521  -0.32370
N          N       0.25815   0.74181   0.58699  -0.21793
N          N       0.14752   0.85245   0.55964  -0.20919
N          N       0.25527   0.74471   0.43999  -0.33252
N          N       0.74185   0.25819   0.08716  -0.21848
N          N       0.85246   0.14755   0.05986  -0.20844
N          N       0.74466   0.25536   0.94017  -0.33225
Cl         Cl      0.82629   0.17381   0.67790  -0.49323
Cl         Cl      0.52579   0.47414   0.65637  -0.45999
Cl         Cl      0.44310   0.55678   0.88463  -0.50203
Cl         Cl      0.17380   0.82607   0.17793  -0.49290
Cl         Cl      0.47427   0.52578   0.15645  -0.46012
Cl         Cl      0.55711   0.44304   0.38474  -0.50210

