data_crystal

_audit_creation_method 'AiiDA-DDEC plugin'

_cell_length_a         9.74551
_cell_length_b        10.06519
_cell_length_c         8.74267

_cell_angle_alpha     64.06191
_cell_angle_beta     71.27959
_cell_angle_gamma     61.72249

_symmetry_space_group_name_Hall 'P 1'
_symmetry_space_group_name_H-M  'P 1'

loop_
_symmetry_equiv_pos_as_xyz
 'x,y,z'

loop_
_atom_site_label
_atom_site_type_symbol
_atom_site_fract_x
_atom_site_fract_y
_atom_site_fract_z
_atom_site_charge
Cd         Cd      0.19774   0.43503   0.30519   1.04229
Cd         Cd      0.42525   0.16540   0.08598   0.88442
Cd         Cd      0.80419   0.56307   0.69291   1.04279
Cd         Cd      0.57679   0.83261   0.91231   0.88462
H          H       0.14255   0.92755   0.25421   0.13291
H          H       0.67033   0.94395   0.40372   0.12369
H          H       0.75727   0.34359   0.35735   0.15284
H          H       0.85954   0.07051   0.74404   0.13332
H          H       0.33178   0.05405   0.59460   0.12360
H          H       0.24481   0.65445   0.64091   0.15285
C          C       0.96182   0.13993   0.30884   0.01764
C          C       0.01731   0.98857   0.29125  -0.06142
C          C       0.91320   0.91801   0.32351  -0.04949
C          C       0.75165   0.00156   0.36789  -0.00988
C          C       0.69463   0.15939   0.36965   0.00474
C          C       0.79987   0.22569   0.34779  -0.06858
C          C       0.07897   0.20677   0.28256   0.55315
C          C       0.97577   0.74979   0.32712   0.57540
C          C       0.52202   0.25686   0.38307   0.54708
C          C       0.04025   0.85815   0.68938   0.01765
C          C       0.98478   0.00947   0.70702  -0.06302
C          C       0.08889   0.08001   0.67476  -0.04805
C          C       0.25046   0.99643   0.63043  -0.01067
C          C       0.30749   0.83859   0.62872   0.00430
C          C       0.20224   0.77234   0.65049  -0.06762
C          C       0.92307   0.79134   0.71563   0.55156
C          C       0.02631   0.24825   0.67110   0.57623
C          C       0.48012   0.74116   0.61551   0.54778
Cl         Cl      0.33284   0.45943   0.97854  -0.43691
Cl         Cl      0.66478   0.91422   0.10798  -0.37942
Cl         Cl      0.66912   0.53857   0.01956  -0.43750
Cl         Cl      0.33701   0.08358   0.89068  -0.37921
O          O       0.22356   0.10642   0.27993  -0.52601
O          O       0.02965   0.35151   0.27019  -0.51600
O          O       0.89139   0.66788   0.40150  -0.53215
O          O       0.11735   0.69448   0.25346  -0.49613
O          O       0.46013   0.37811   0.42637  -0.40762
O          O       0.43727   0.21192   0.34166  -0.55044
O          O       0.77846   0.89167   0.71848  -0.52410
O          O       0.97235   0.64667   0.72781  -0.51620
O          O       0.11066   0.33018   0.59667  -0.53287
O          O       0.88472   0.30354   0.74475  -0.49596
O          O       0.54222   0.61945   0.57297  -0.40858
O          O       0.56477   0.78662   0.65633  -0.55103

