data_crystal

_audit_creation_method 'AiiDA-DDEC plugin'

_cell_length_a         9.56047
_cell_length_b        11.73567
_cell_length_c        11.94371

_cell_angle_alpha     76.61076
_cell_angle_beta     45.45676
_cell_angle_gamma     59.65753

_symmetry_space_group_name_Hall 'P 1'
_symmetry_space_group_name_H-M  'P 1'

loop_
_symmetry_equiv_pos_as_xyz
 'x,y,z'

loop_
_atom_site_label
_atom_site_type_symbol
_atom_site_fract_x
_atom_site_fract_y
_atom_site_fract_z
_atom_site_charge
Li         Li      0.46100   0.40818   0.08953   0.84743
Li         Li      0.52978   0.07118   0.37346   0.82918
Li         Li      0.09761   0.14247   0.62537   0.86348
Li         Li      0.43101   0.34463   0.36612   0.83506
Li         Li      0.53897   0.59185   0.91048   0.84740
Li         Li      0.47025   0.92882   0.62652   0.82915
Li         Li      0.90244   0.85752   0.37461   0.86349
Li         Li      0.56903   0.65537   0.63386   0.83508
H          H       0.03897   0.12116   0.37759   0.12583
H          H       0.85979   0.32678   0.11369   0.11265
H          H       0.13396   0.46305   0.18652   0.08997
H          H       0.52318   0.62053   0.37793   0.12523
H          H       0.40061   0.81573   0.07979   0.10318
H          H       0.66883   0.94315   0.16628   0.10875
H          H       0.96105   0.87883   0.62240   0.12577
H          H       0.14023   0.67321   0.88630   0.11255
H          H       0.86604   0.53695   0.81348   0.09024
H          H       0.47685   0.37947   0.62205   0.12514
H          H       0.59939   0.18429   0.92021   0.10308
H          H       0.33121   0.05685   0.83370   0.10895
C          C       0.23969   0.25644   0.32367   0.66366
C          C       0.85143   0.12280   0.28432   0.63828
C          C       0.10600   0.28664   0.28605  -0.05035
C          C       0.02334   0.20285   0.31485  -0.07174
C          C       0.93036   0.21858   0.25580  -0.03567
C          C       0.92299   0.31720   0.16532  -0.13565
C          C       0.00395   0.40261   0.13705   0.15720
C          C       0.08624   0.38968   0.20302  -0.12277
C          C       0.67403   0.77432   0.36454   0.62857
C          C       0.42343   0.59530   0.22545   0.63023
C          C       0.59371   0.78498   0.28937  -0.04723
C          C       0.52034   0.69853   0.30846  -0.06841
C          C       0.45703   0.70582   0.22916  -0.05244
C          C       0.45179   0.80604   0.14043  -0.13241
C          C       0.52274   0.89362   0.12314   0.16004
C          C       0.59865   0.88024   0.19371  -0.13243
C          C       0.76033   0.74356   0.67632   0.66362
C          C       0.14860   0.87719   0.71566   0.63823
C          C       0.89402   0.71336   0.71394  -0.05031
C          C       0.97668   0.79714   0.68514  -0.07190
C          C       0.06966   0.78141   0.74418  -0.03559
C          C       0.07703   0.68279   0.83467  -0.13567
C          C       0.99606   0.59739   0.86294   0.15712
C          C       0.91377   0.61032   0.79698  -0.12280
C          C       0.32601   0.22567   0.63545   0.62857
C          C       0.57657   0.40471   0.77454   0.63042
C          C       0.40631   0.21502   0.71061  -0.04724
C          C       0.47968   0.30147   0.69153  -0.06845
C          C       0.54298   0.29419   0.77084  -0.05268
C          C       0.54822   0.19397   0.85957  -0.13234
C          C       0.47728   0.10638   0.87685   0.15984
C          C       0.40138   0.11976   0.80627  -0.13221
N          N       0.02176   0.50053   0.03936  -0.12191
N          N       0.53496   0.99461   0.03162  -0.11780
N          N       0.97825   0.49947   0.96064  -0.12147
N          N       0.46506   0.00540   0.96837  -0.11704
O          O       0.24108   0.17129   0.41212  -0.74634
O          O       0.35942   0.31345   0.25748  -0.76082
O          O       0.70659   0.16077   0.27692  -0.74659
O          O       0.93066   0.01127   0.31609  -0.67392
O          O       0.67995   0.87921   0.37726  -0.84577
O          O       0.40724   0.58874   0.12768  -0.79948
O          O       0.42190   0.51069   0.31224  -0.63547
O          O       0.72864   0.66951   0.41340  -0.62190
O          O       0.75895   0.82870   0.58786  -0.74646
O          O       0.64059   0.68655   0.74252  -0.76055
O          O       0.29344   0.83922   0.72307  -0.74676
O          O       0.06938   0.98872   0.68388  -0.67396
O          O       0.32008   0.12079   0.62273  -0.84549
O          O       0.59271   0.41129   0.87233  -0.79970
O          O       0.57814   0.48931   0.68773  -0.63560
O          O       0.27139   0.33048   0.58658  -0.62207

