data_crystal

_audit_creation_method 'AiiDA-DDEC plugin'

_cell_length_a         9.37126
_cell_length_b        13.16245
_cell_length_c        12.96220

_cell_angle_alpha     88.09585
_cell_angle_beta     75.27731
_cell_angle_gamma     68.20415

_symmetry_space_group_name_Hall 'P 1'
_symmetry_space_group_name_H-M  'P 1'

loop_
_symmetry_equiv_pos_as_xyz
 'x,y,z'

loop_
_atom_site_label
_atom_site_type_symbol
_atom_site_fract_x
_atom_site_fract_y
_atom_site_fract_z
_atom_site_charge
Cu         Cu      0.75292   0.46609   0.04910   0.26684
Cu         Cu      0.24262   0.53279   0.95087   0.26155
H          H       0.13759   0.49129   0.74586   0.09426
H          H       0.25138   0.47507   0.54863   0.12013
H          H       0.65382   0.52680   0.60749   0.11998
H          H       0.52819   0.53007   0.80447   0.11089
H          H       0.83109   0.93543   0.93613   0.12003
H          H       0.93344   0.73166   0.92135   0.09137
H          H       0.33125   0.70384   0.01980   0.10851
H          H       0.23943   0.90920   0.04860   0.11987
H          H       0.88919   0.42535   0.25451   0.09117
H          H       0.78054   0.42782   0.45130   0.11976
H          H       0.30960   0.55996   0.39918   0.12258
H          H       0.44173   0.54111   0.20141   0.10873
H          H       0.20231   0.07095   0.98453   0.12050
H          H       0.09549   0.27427   0.00965   0.09090
H          H       0.63382   0.29769   0.04241   0.10962
H          H       0.71826   0.09244   0.03076   0.12050
C          C       0.25253   0.49799   0.71170   0.07049
C          C       0.31566   0.49049   0.60148  -0.19110
C          C       0.46339   0.50056   0.55986   0.09082
C          C       0.54059   0.51645   0.63420  -0.18073
C          C       0.47110   0.52096   0.74329   0.09744
C          C       0.96920   0.06239   0.00640   0.09074
C          C       0.07479   0.11675   0.00039  -0.18714
C          C       0.01583   0.23072   0.01312   0.07193
C          C       0.22042   0.76040   0.00375   0.09575
C          C       0.16912   0.87396   0.01769  -0.18272
C          C       0.56034   0.49943   0.00886  -0.47898
C          C       0.76123   0.45360   0.29000   0.07694
C          C       0.69982   0.45663   0.40008  -0.19004
C          C       0.53402   0.49478   0.44343   0.09200
C          C       0.43886   0.52730   0.37088  -0.18535
C          C       0.50969   0.51989   0.26167   0.09735
C          C       0.02655   0.94149   0.99400   0.09016
C          C       0.94091   0.88856   0.95780  -0.18813
C          C      -0.00104   0.77449   0.94770   0.07743
C          C       0.75763   0.24239   0.03314   0.09912
C          C       0.80691   0.12878   0.02373  -0.18185
C          C       0.42951   0.50420   0.99706  -0.47228
N          N       0.32795   0.51270   0.78235  -0.18501
N          N       0.86009   0.29342   0.02907  -0.18319
N          N       0.05664   0.50531   0.98798  -0.08258
N          N       0.66904   0.48397   0.22116  -0.19043
N          N       0.13673   0.71067   0.96932  -0.18720
N          N       0.93086   0.50370   0.01864  -0.08063

