data_crystal

_audit_creation_method 'AiiDA-DDEC plugin'

_cell_length_a         8.14053
_cell_length_b         9.10929
_cell_length_c        10.63375

_cell_angle_alpha     105.76719
_cell_angle_beta     103.00924
_cell_angle_gamma     92.15254

_symmetry_space_group_name_Hall 'P 1'
_symmetry_space_group_name_H-M  'P 1'

loop_
_symmetry_equiv_pos_as_xyz
 'x,y,z'

loop_
_atom_site_label
_atom_site_type_symbol
_atom_site_fract_x
_atom_site_fract_y
_atom_site_fract_z
_atom_site_charge
Fe         Fe     -0.00001  -0.00009  -0.00001   0.65619
H          H       0.40583   0.13838   0.00286   0.12356
H          H       0.17219   0.53968   0.96588   0.11388
H          H       0.10205   0.96058   0.31007   0.12901
H          H       0.61322   0.98219   0.27622   0.11008
H          H       0.89799   0.03916   0.68987   0.12911
H          H       0.38679   0.01759   0.72366   0.11013
H          H       0.59413   0.86142   0.99703   0.12362
H          H       0.82778   0.46016   0.03415   0.11424
H          H       0.06621   0.37160   0.19131   0.12225
H          H       0.83285   0.22892   0.46162   0.10975
H          H       0.93375   0.62822   0.80869   0.12262
H          H       0.16716   0.77081   0.53837   0.10976
C          C       0.31007   0.21609   0.98955   0.05335
C          C       0.18796   0.42306   0.96858   0.03370
C          C       0.21185   0.96189   0.26876   0.04105
C          C       0.47582   0.97330   0.25123   0.02814
C          C       0.78818   0.03787   0.73117   0.04112
C          C       0.52419   0.02648   0.74867   0.02836
C          C       0.68989   0.78372   0.01038   0.05387
C          C       0.81200   0.57677   0.03143   0.03292
C          C      -0.00184   0.30060   0.23319   0.03257
C          C       0.87774   0.22629   0.37290   0.00792
C          C       0.00181   0.69920   0.76680   0.03157
C          C       0.12226   0.77346   0.62709   0.00793
N          N       0.14508   0.18825   0.97631  -0.18361
N          N       0.06750   0.31841   0.96150  -0.20205
N          N       0.34294   0.36332   0.98554   0.14125
N          N       0.50290   0.42756   0.99639  -0.13381
N          N       0.78842   0.04075   0.85653  -0.18362
N          N       0.62199   0.03494   0.86799  -0.18380
N          N       0.62397   0.02694   0.65859   0.14302
N          N       0.58249   0.01434   0.52295  -0.15762
N          N       0.21158   0.95903   0.14340  -0.18349
N          N       0.37800   0.96487   0.13192  -0.18384
N          N       0.37607   0.97280   0.34133   0.14331
N          N       0.41755   0.98540   0.47696  -0.15741
N          N       0.85488   0.81156   0.02365  -0.18378
N          N       0.93247   0.68141   0.03851  -0.20166
N          N       0.65701   0.63650   0.01442   0.14101
N          N       0.49706   0.57225   0.00356  -0.13381
N          N       0.06810   0.84436   0.82513  -0.18480
N          N       0.14384   0.89176   0.73715  -0.21891
N          N       0.03267   0.64988   0.64202   0.16284
N          N       0.97686   0.50432   0.55740  -0.23198
N          N       0.93189   0.15543   0.17486  -0.18528
N          N       0.85617   0.10800   0.26283  -0.21915
N          N       0.96731   0.34990   0.35797   0.16284
N          N       0.02309   0.49545   0.44260  -0.23235

