data_crystal

_audit_creation_method 'AiiDA-DDEC plugin'

_cell_length_a         7.67676
_cell_length_b         5.28267
_cell_length_c        12.19424

_cell_angle_alpha     102.51563
_cell_angle_beta     111.94870
_cell_angle_gamma     90.01137

_symmetry_space_group_name_Hall 'P 1'
_symmetry_space_group_name_H-M  'P 1'

loop_
_symmetry_equiv_pos_as_xyz
 'x,y,z'

loop_
_atom_site_label
_atom_site_type_symbol
_atom_site_fract_x
_atom_site_fract_y
_atom_site_fract_z
_atom_site_charge
Cd         Cd     -0.00048   0.49996   0.50023   0.75991
Cd         Cd      0.49950   0.50014   0.50020   0.75957
H          H       0.14098   0.97519   0.78346   0.08471
H          H       0.67620   0.14554   0.00460   0.08220
H          H       0.35792   0.69209   0.21693   0.08467
H          H       0.82265   0.64088   0.99588   0.08232
H          H       0.20842   0.42113   0.80548   0.09380
H          H       0.96286   0.20831   0.99510   0.06003
H          H       0.29047   0.11614   0.19492   0.09503
H          H       0.53593   0.71354   0.00524   0.06025
H          H       0.85794   0.02468   0.21694   0.08506
H          H       0.32267   0.85470   0.99583   0.08190
H          H       0.64087   0.30825   0.78347   0.08464
H          H       0.17613   0.35905   0.00453   0.08192
H          H       0.79045   0.57869   0.19497   0.09396
H          H       0.03590   0.79163   0.00529   0.06049
H          H       0.70852   0.88427   0.80551   0.09525
H          H       0.46291   0.28668   0.99514   0.06044
C          C       0.26334   0.91891   0.76371  -0.00745
C          C       0.23559   0.65540   0.23669  -0.00683
C          C       0.05663   0.40651   0.77550  -0.01536
C          C       0.44226   0.13131   0.22492  -0.01868
C          C       0.73561   0.08109   0.23670  -0.00660
C          C       0.76324   0.34474   0.76371  -0.00761
C          C       0.94224   0.59340   0.22493  -0.01586
C          C       0.55672   0.86896   0.77551  -0.01844
C          C       0.52249   0.10108   0.96852  -0.09499
C          C       0.97635   0.63259   0.03191  -0.09416
C          C       0.02243   0.36735   0.96849  -0.09422
C          C       0.47638   0.89914   0.03188  -0.09399
N          N       0.25841   0.76450   0.66047  -0.15114
N          N       0.24057   0.60419   0.33993  -0.15089
N          N       0.93732   0.43487   0.66804  -0.16551
N          N       0.56164   0.26702   0.33241  -0.16282
N          N       0.74060   0.23552   0.33995  -0.15303
N          N       0.75833   0.39594   0.66048  -0.15032
N          N       0.06161   0.56513   0.33239  -0.16553
N          N       0.43739   0.73316   0.66802  -0.16515
N          N       0.45288   0.00555   0.83922  -0.01483
N          N       0.04604   0.66640   0.16121  -0.01737
N          N       0.95276   0.33359   0.83920  -0.01662
N          N       0.54605  -0.00537   0.16119  -0.01673
Cl         Cl      0.74963   0.84147   0.50027  -0.50091
Cl         Cl      0.24949   0.15864   0.50020  -0.50112

