data_crystal

_audit_creation_method 'AiiDA-DDEC plugin'

_cell_length_a         7.21249
_cell_length_b         9.80512
_cell_length_c        12.55471

_cell_angle_alpha     75.65951
_cell_angle_beta     88.24911
_cell_angle_gamma     80.12270

_symmetry_space_group_name_Hall 'P 1'
_symmetry_space_group_name_H-M  'P 1'

loop_
_symmetry_equiv_pos_as_xyz
 'x,y,z'

loop_
_atom_site_label
_atom_site_type_symbol
_atom_site_fract_x
_atom_site_fract_y
_atom_site_fract_z
_atom_site_charge
Zn         Zn      0.08147   0.10045   0.53637   0.99160
Zn         Zn      0.66514   0.18688   0.36108   0.98443
Zn         Zn      0.90308   0.90634   0.46320   0.99360
Zn         Zn      0.31185   0.81971   0.63517   0.97089
H          H       0.69640   0.98851   0.76763   0.13714
H          H       0.40486   0.39539   0.58664   0.13586
H          H       0.78664   0.37908   0.84716   0.13496
H          H       0.74721   0.19754   0.02609   0.14065
H          H       0.27323   0.00918   0.24207   0.13075
H          H       0.60383   0.61066   0.40775   0.13593
H          H       0.22817   0.62065   0.14526   0.13588
H          H       0.24443   0.80267   0.97504   0.13788
C          C       0.43491   0.10647   0.61246   0.59187
C          C       0.54721   0.18388   0.66865  -0.01609
C          C       0.67323   0.10441   0.75173  -0.10253
C          C       0.50924   0.33405   0.64848  -0.03677
C          C       0.59988   0.40320   0.71195  -0.02187
C          C       0.72041   0.32307   0.79806  -0.11136
C          C       0.76112   0.17255   0.81782   0.09749
C          C       0.88819   0.08773   0.90809   0.07458
C          C       0.85919   0.11342   0.01360  -0.11703
C          C       0.55803   0.56383   0.69490   0.55788
C          C       0.96020   0.02599   0.10536  -0.06067
C          C       0.89615   0.04505   0.21682   0.58406
C          C       0.55030   0.89643   0.39083   0.59456
C          C       0.44454   0.81776   0.33265  -0.03609
C          C       0.30887   0.89411   0.25332  -0.05263
C          C       0.49758   0.67046   0.34665  -0.06136
C          C       0.41632   0.60026   0.27961  -0.01263
C          C       0.28553   0.67730   0.19751  -0.13032
C          C       0.22863   0.82512   0.18388   0.08077
C          C       0.10198   0.91104   0.09337   0.08010
C          C       0.13185   0.88627   0.98765  -0.12394
C          C       0.47665   0.44349   0.29527   0.54143
C          C       0.03015   0.97292   0.89599  -0.04997
C          C       0.09215   0.95361   0.78416   0.58533
O          O       0.83834   0.10304   0.48552  -0.83461
O          O       0.47116   0.97123   0.63902  -0.53761
O          O       0.30464   0.18389   0.54504  -0.52052
O          O       0.65686   0.62445   0.74093  -0.46757
O          O       0.40780   0.62316   0.63391  -0.53514
O          O       0.92776   0.93365   0.29574  -0.53190
O          O       0.80846   0.16743   0.22220  -0.53116
O          O       0.14915   0.90472   0.50848  -0.83305
O          O       0.51118   0.03203   0.36462  -0.52940
O          O       0.67982   0.82077   0.45891  -0.51965
O          O       0.44006   0.37774   0.22704  -0.47215
O          O       0.57593   0.37792   0.38438  -0.50239
O          O       0.05564   0.06445   0.70526  -0.54018
O          O       0.18183   0.83170   0.77881  -0.52904

