data_crystal

_audit_creation_method 'AiiDA-DDEC plugin'

_cell_length_a         9.47779
_cell_length_b         9.64994
_cell_length_c        12.43800

_cell_angle_alpha     88.14272
_cell_angle_beta     86.21990
_cell_angle_gamma     60.58602

_symmetry_space_group_name_Hall 'P 1'
_symmetry_space_group_name_H-M  'P 1'

loop_
_symmetry_equiv_pos_as_xyz
 'x,y,z'

loop_
_atom_site_label
_atom_site_type_symbol
_atom_site_fract_x
_atom_site_fract_y
_atom_site_fract_z
_atom_site_charge
Mn         Mn      0.65409   0.68646  -0.00038   1.10437
Mn         Mn      0.34593   0.30298  -0.00003   1.10247
H          H       0.44362   0.26001   0.43708   0.13223
H          H       0.57965   0.24878   0.25776   0.12973
H          H       0.07493   0.74213   0.14679   0.11805
H          H       0.33823   0.74105   0.14060   0.10385
H          H       0.68423   0.10882   0.09941   0.11452
H          H       0.29349   0.25999   0.56333   0.13179
H          H       0.16882   0.24794   0.74253   0.13022
H          H       0.17825   0.74097   0.85201   0.11730
H          H       0.91579   0.74036   0.85844   0.10366
H          H       0.20308   0.10702   0.90001   0.11523
H          H       0.59016   0.74512   0.57837   0.13122
H          H       0.44735   0.75518   0.75455   0.13223
H          H       0.91666   0.25515   0.85467   0.11319
H          H       0.65649   0.25042   0.86005   0.10469
H          H       0.31163   0.89515   0.90035   0.11534
H          H       0.65838   0.74566   0.41973   0.13206
H          H       0.79081   0.75644   0.24357   0.13213
H          H       0.82300   0.25629   0.14479   0.11522
H          H       0.08815   0.25112   0.13973   0.10265
H          H       0.78736   0.89693   0.09852   0.11595
C          C       0.51933   0.14493   0.39897  -0.17746
C          C       0.59625   0.14221   0.30070   0.03453
C          C       0.07669   0.85423   0.14603  -0.14214
C          C       0.22461   0.85269   0.14147  -0.08502
C          C       0.46134   0.53121   0.94587   0.45389
C          C       0.33224   0.14465   0.60090  -0.17633
C          C       0.25811   0.14153   0.69912   0.03450
C          C       0.06449   0.85318   0.85296  -0.14128
C          C       0.91797   0.85190   0.85765  -0.08628
C          C       0.00205   0.53221   0.05294   0.45427
C          C       0.49463   0.85967   0.60834  -0.17055
C          C       0.41725   0.86132   0.70632   0.03469
C          C       0.91772   0.14175   0.85431  -0.13788
C          C       0.77144   0.14008   0.85871  -0.09116
C          C       0.53684   0.46044   0.05397   0.45590
C          C       0.64002   0.86020   0.39025  -0.17187
C          C       0.71548   0.86226   0.29225   0.03456
C          C       0.93526   0.14281   0.14506  -0.14056
C          C       0.08333   0.14090   0.14084  -0.08804
C          C      -0.00222   0.45973   0.94551   0.45478
C          C       0.53778   0.00249   0.44815   0.08590
C          C       0.77128   0.00185   0.14042  -0.16296
C          C       0.93115  -0.00058   0.14555   0.09446
C          C       0.22943   0.99591   0.13610  -0.06359
C          C       0.38724   0.99412   0.11780   0.59696
C          C       0.45531   0.00231   0.55108   0.08348
C          C       0.22277   0.00036   0.85870  -0.16282
C          C       0.06515  -0.00178   0.85357   0.09529
C          C       0.77004   0.99524   0.86333  -0.06143
C          C       0.61387   0.99375   0.88185   0.59357
N          N       0.69387   0.00206   0.24825   0.14865
N          N       0.29986   0.00106   0.75091   0.14776
O          O       0.51781   0.85903   0.11100  -0.57767
O          O       0.49210   0.63560   0.90364  -0.50856
O          O       0.37483   0.47984   0.90742  -0.50192
O          O       0.61816   0.85873   0.88853  -0.57639
O          O       0.86666   0.63798   0.09398  -0.50921
O          O       0.13944   0.48101   0.09207  -0.50184
O          O       0.48118   0.12626   0.88897  -0.57017
O          O       0.50456   0.35746   0.09675  -0.50768
O          O       0.62510   0.51013   0.09215  -0.50485
O          O       0.38762   0.12660   0.11102  -0.57138
O          O       0.13323   0.35621   0.90323  -0.50830
O          O       0.85993   0.50881   0.90741  -0.50394

