data_crystal

_audit_creation_method 'AiiDA-DDEC plugin'

_cell_length_a         9.79685
_cell_length_b         9.23696
_cell_length_c         9.99116

_cell_angle_alpha     92.29027
_cell_angle_beta     96.91684
_cell_angle_gamma     126.96747

_symmetry_space_group_name_Hall 'P 1'
_symmetry_space_group_name_H-M  'P 1'

loop_
_symmetry_equiv_pos_as_xyz
 'x,y,z'

loop_
_atom_site_label
_atom_site_type_symbol
_atom_site_fract_x
_atom_site_fract_y
_atom_site_fract_z
_atom_site_charge
Ca         Ca      0.00041   0.50086   0.50137   1.47093
Ca         Ca      0.50077   0.00137   0.00134   1.45339
Cu         Cu      0.76049   0.06022   0.28079   1.01137
Cu         Cu      0.23874   0.93992   0.72276   1.01467
H          H       0.40874   0.39642   0.64346   0.13222
H          H       0.64215   0.34588   0.60622   0.13665
H          H       0.65253   0.58016   0.80584   0.12373
H          H       0.75354   0.37627   0.86350   0.13220
H          H       0.58951   0.60364   0.35903   0.13226
H          H       0.35715   0.65521   0.39755   0.13650
H          H       0.34677   0.42105   0.19734   0.12413
H          H       0.24665   0.62556   0.13940   0.13255
C          C       0.10212   0.21703   0.43771   0.61619
C          C       0.25138   0.21199   0.45511  -0.11400
C          C       0.39670   0.31052   0.55837  -0.11137
C          C       0.51979   0.28367   0.53776  -0.09642
C          C       0.46755   0.16704   0.41743  -0.15837
C          C       0.56853   0.12069   0.36207   0.59900
C          C       0.66824   0.79584   0.04357   0.61151
C          C       0.72592   0.68313   0.02205  -0.13276
C          C       0.70658   0.57893   0.90680  -0.08853
C          C       0.75905   0.46940   0.93816  -0.11583
C          C       0.82226   0.49625   0.07668  -0.14868
C          C       0.87205   0.39808   0.15600   0.62748
C          C       0.89757   0.78354   0.56350   0.61402
C          C       0.74825   0.78846   0.54693  -0.11485
C          C       0.60231   0.68988   0.44427  -0.10976
C          C       0.47977   0.71730   0.46561  -0.09989
C          C       0.53302   0.83436   0.58591  -0.15579
C          C       0.43295   0.88154   0.64202   0.59940
C          C       0.33016   0.20432   0.95968   0.61140
C          C       0.27295   0.31748   0.98123  -0.13093
C          C       0.29268   0.42213   0.09635  -0.08893
C          C       0.24063   0.53199   0.06483  -0.11482
C          C       0.17730   0.50492   0.92632  -0.14727
C          C       0.12819   0.60339   0.84666   0.62827
S          S       0.26367   0.08514   0.33315   0.26257
S          S       0.81695   0.65472   0.16760   0.23978
S          S       0.73716   0.91599   0.66927   0.26082
S          S       0.18191   0.34579   0.83559   0.23890
O          O       0.97065   0.08812   0.34907  -0.58117
O          O       0.11570   0.34433   0.50613  -0.63252
O          O       0.72732   0.19805   0.42212  -0.63088
O          O       0.50900   0.00403   0.25435  -0.59837
O          O       0.67840   0.83791   0.17201  -0.61757
O          O       0.60852   0.83799   0.94730  -0.60919
O          O       0.97968   0.48135   0.26706  -0.64257
O          O       0.79499   0.22831   0.11129  -0.67652
O          O       0.02956   0.91304   0.65139  -0.58222
O          O       0.88367   0.65596   0.49512  -0.63190
O          O       0.27355   0.80338   0.58278  -0.63211
O          O       0.49366  -0.00092   0.74919  -0.60046
O          O       0.31840   0.16115   0.83111  -0.61843
O          O       0.39078   0.16276   0.05571  -0.60928
O          O       0.02022   0.52017   0.73581  -0.64130
O          O       0.20641   0.77366   0.89089  -0.67724

