data_crystal

_audit_creation_method 'AiiDA-DDEC plugin'

_cell_length_a         5.79444
_cell_length_b        10.56896
_cell_length_c        12.40706

_cell_angle_alpha     90.00000
_cell_angle_beta     90.00053
_cell_angle_gamma     90.00000

_symmetry_space_group_name_Hall 'P 1'
_symmetry_space_group_name_H-M  'P 1'

loop_
_symmetry_equiv_pos_as_xyz
 'x,y,z'

loop_
_atom_site_label
_atom_site_type_symbol
_atom_site_fract_x
_atom_site_fract_y
_atom_site_fract_z
_atom_site_charge
Ni         Ni      0.77523   0.22468   0.32691   0.74502
Ni         Ni      0.27523   0.77531   0.67309   0.74502
Ni         Ni      0.77524   0.72468   0.17309   0.74506
Ni         Ni      0.27523   0.27532   0.82691   0.74500
H          H       0.02953   0.02378   0.16646   0.11112
H          H       0.99171   0.42876   0.98099   0.12596
H          H       0.23785   0.05892   0.99262   0.10930
H          H       0.52955   0.97621   0.83355   0.11097
H          H       0.49175   0.57122   0.01901   0.12596
H          H       0.73786   0.94106   0.00739   0.10940
H          H       0.02952   0.52377   0.33355   0.11102
H          H       0.99173   0.92876   0.51901   0.12590
H          H       0.23786   0.55893   0.50739   0.10936
H          H       0.52955   0.47622   0.66646   0.11114
H          H       0.49172   0.07124   0.48099   0.12591
H          H       0.73786   0.44107   0.49262   0.10940
C          C       0.77505   0.42865   0.17775   0.55259
C          C       0.01970   0.11492   0.12608   0.06384
C          C       0.89082   0.32080   0.12057   0.06122
C          C       0.00013   0.33820   0.02184   0.07488
C          C       0.13571   0.13390   0.02899   0.07092
C          C       0.27505   0.57135   0.82226   0.55246
C          C       0.51972   0.88507   0.87393   0.06415
C          C       0.39083   0.67919   0.87943   0.06136
C          C       0.50016   0.66178   0.97816   0.07484
C          C       0.63572   0.86608   0.97102   0.07053
C          C       0.77505   0.92865   0.32225   0.55242
C          C       0.01970   0.61492   0.37393   0.06413
C          C       0.89082   0.82080   0.37943   0.06134
C          C       0.00014   0.83821   0.47816   0.07475
C          C       0.13571   0.63391   0.47102   0.07069
C          C       0.27505   0.07135   0.67775   0.55216
C          C       0.51973   0.38508   0.62608   0.06398
C          C       0.39083   0.17919   0.62058   0.06141
C          C       0.50015   0.16179   0.52184   0.07482
C          C       0.63573   0.36609   0.52899   0.07069
N          N       0.89494   0.20825   0.17138  -0.19597
N          N       0.12322   0.24499   0.97579  -0.16038
N          N       0.39496   0.79174   0.82863  -0.19616
N          N       0.62324   0.75499   0.02422  -0.16015
N          N       0.89494   0.70825   0.32863  -0.19604
N          N       0.12323   0.74499   0.52422  -0.16020
N          N       0.39496   0.29174   0.67138  -0.19606
N          N       0.62324   0.25500   0.47579  -0.16032
Cl         Cl      0.13652   0.28714   0.37498  -0.52053
Cl         Cl      0.63651   0.71284   0.62502  -0.52054
Cl         Cl      0.13653   0.78713   0.12502  -0.52057
Cl         Cl      0.63650   0.21284   0.87499  -0.52052
O          O       0.68047   0.40644   0.26820  -0.51128
O          O       0.78930   0.53449   0.12970  -0.52663
O          O       0.18048   0.59356   0.73180  -0.51130
O          O       0.28929   0.46550   0.87030  -0.52653
O          O       0.68049   0.90643   0.23180  -0.51133
O          O       0.78929   0.03450   0.37030  -0.52660
O          O       0.18046   0.09357   0.76820  -0.51110
O          O       0.28930   0.96550   0.62970  -0.52650

