data_crystal

_audit_creation_method 'AiiDA-DDEC plugin'

_cell_length_a         7.51909
_cell_length_b         5.62503
_cell_length_c         9.58849

_cell_angle_alpha     107.05235
_cell_angle_beta     109.13480
_cell_angle_gamma     90.20906

_symmetry_space_group_name_Hall 'P 1'
_symmetry_space_group_name_H-M  'P 1'

loop_
_symmetry_equiv_pos_as_xyz
 'x,y,z'

loop_
_atom_site_label
_atom_site_type_symbol
_atom_site_fract_x
_atom_site_fract_y
_atom_site_fract_z
_atom_site_charge
Cd         Cd      0.74970   0.89245   0.49982   1.05476
Cd         Cd      0.25032   0.10755   0.50013   1.05480
H          H       0.24595   0.84618   0.74086   0.10983
H          H       0.16231   0.96538   0.98215   0.11670
H          H       0.74640   0.39425   0.74073   0.11024
H          H       0.33765   0.48282   0.01812   0.11689
H          H       0.75407   0.15367   0.25909   0.10980
H          H       0.83770   0.03460   0.01779   0.11667
H          H       0.25362   0.60574   0.25924   0.11017
H          H       0.66237   0.51716   0.98184   0.11694
C          C       0.59632   0.88063   0.72224   0.56573
C          C       0.54651   0.93728   0.86468  -0.03039
C          C       0.35607   0.91627   0.85490  -0.07658
C          C       0.30996   0.97994   0.98900  -0.08590
C          C       0.09665   0.34104   0.72245   0.56609
C          C       0.04671   0.42695   0.86480  -0.03059
C          C       0.85630   0.43842   0.85483  -0.07808
C          C       0.19003   0.49065   0.01114  -0.08491
C          C       0.40368   0.11934   0.27770   0.56562
C          C       0.45349   0.06271   0.13526  -0.03030
C          C       0.64394   0.08369   0.14504  -0.07680
C          C       0.69005   0.02005   0.01094  -0.08563
C          C       0.90337   0.65895   0.27750   0.56631
C          C       0.95332   0.57302   0.13516  -0.03063
C          C       0.14373   0.56156   0.14513  -0.07802
C          C       0.80998   0.50933   0.98882  -0.08489
O          O       0.77174   0.87792   0.73529  -0.52285
O          O       0.46777   0.84040   0.58770  -0.60384
O          O       0.96797   0.24853   0.58769  -0.60424
O          O       0.27230   0.35518   0.73592  -0.52291
O          O       0.22826   0.12206   0.26465  -0.52276
O          O       0.53223   0.15956   0.41224  -0.60374
O          O       0.03204   0.75147   0.41227  -0.60436
O          O       0.72771   0.64480   0.26402  -0.52311

