data_crystal

_audit_creation_method 'AiiDA-DDEC plugin'

_cell_length_a         6.87255
_cell_length_b        15.24392
_cell_length_c        15.24281

_cell_angle_alpha     117.78905
_cell_angle_beta     98.64959
_cell_angle_gamma     98.63833

_symmetry_space_group_name_Hall 'P 1'
_symmetry_space_group_name_H-M  'P 1'

loop_
_symmetry_equiv_pos_as_xyz
 'x,y,z'

loop_
_atom_site_label
_atom_site_type_symbol
_atom_site_fract_x
_atom_site_fract_y
_atom_site_fract_z
_atom_site_charge
Co         Co      0.51768   0.40474   0.73343   0.99495
Co         Co      0.78413   0.26652   0.67116   0.99443
Co         Co      0.11300   0.32876   0.59530   0.99428
Co         Co      0.48250   0.59531   0.26648   0.99459
Co         Co      0.21607   0.73359   0.32887   0.99446
Co         Co      0.88715   0.67123   0.40465   0.99445
H          H       0.17776   0.52594   0.54997   0.14320
H          H       0.62777   0.45009   0.97585   0.14317
H          H       0.65194   0.02427   0.47426   0.14285
H          H       0.82234   0.47397   0.44985   0.14322
H          H       0.37249   0.55013   0.02410   0.14356
H          H       0.34829   0.97578   0.52590   0.14278
C          C       0.74885   0.39492   0.56686   0.62625
C          C       0.61938   0.44974   0.53530  -0.13870
C          C       0.43347   0.46419   0.56465   0.30863
C          C       0.31909   0.51434   0.52801  -0.19319
C          C       0.18201   0.43310   0.82802   0.62599
C          C       0.08408   0.46466   0.91438  -0.13867
C          C       0.86880   0.43533   0.89946   0.30899
C          C       0.79108   0.47202   0.98625  -0.19309
C          C       0.35414   0.17190   0.60484   0.62631
C          C       0.16977   0.08557   0.55015  -0.13907
C          C       0.96947   0.10053   0.53581   0.30795
C          C       0.80481   0.01381   0.48576  -0.19172
C          C       0.25123   0.60498   0.43297   0.62616
C          C       0.38071   0.55015   0.46451  -0.13816
C          C       0.56662   0.53571   0.43516   0.30814
C          C       0.68100   0.48556   0.47180  -0.19284
C          C       0.81822   0.56709   0.17194   0.62650
C          C       0.91618   0.53554   0.08559  -0.13880
C          C       0.13146   0.56487   0.10051   0.30804
C          C       0.20918   0.52820   0.01372  -0.19301
C          C       0.64608   0.82815   0.39522   0.62666
C          C       0.83045   0.91447   0.44997  -0.13951
C          C       0.03076   0.89950   0.46431   0.30783
C          C       0.19542   0.98623   0.51438  -0.19167
O          O       0.69391   0.36268   0.62622  -0.61130
O          O       0.90873   0.37979   0.53502  -0.53533
O          O       0.36318   0.43273   0.62626  -0.59416
O          O       0.06776   0.37364   0.73640  -0.61086
O          O       0.37373   0.46501   0.84474  -0.53555
O          O       0.73684   0.37371   0.80637  -0.59495
O          O       0.33171   0.26355   0.63716  -0.61120
O          O       0.52911   0.15508   0.61980  -0.53510
O          O       0.93088   0.19366   0.56736  -0.59401
O          O       0.30619   0.63727   0.37365  -0.61124
O          O       0.09134   0.62008   0.46480  -0.53560
O          O       0.63695   0.56721   0.37359  -0.59410
O          O       0.93242   0.62653   0.26357  -0.61140
O          O       0.62650   0.53517   0.15518  -0.53565
O          O       0.26342   0.62646   0.19360  -0.59403
O          O       0.66846   0.73649   0.36292  -0.61136
O          O       0.47113   0.84498   0.38023  -0.53498
O          O       0.06937   0.80638   0.43275  -0.59417

