data_crystal

_audit_creation_method 'AiiDA-DDEC plugin'

_cell_length_a         4.74313
_cell_length_b         9.76379
_cell_length_c        11.62189

_cell_angle_alpha     91.58021
_cell_angle_beta     80.61057
_cell_angle_gamma     78.39628

_symmetry_space_group_name_Hall 'P 1'
_symmetry_space_group_name_H-M  'P 1'

loop_
_symmetry_equiv_pos_as_xyz
 'x,y,z'

loop_
_atom_site_label
_atom_site_type_symbol
_atom_site_fract_x
_atom_site_fract_y
_atom_site_fract_z
_atom_site_charge
Cu         Cu      0.28808   0.18286   0.31031   0.36828
Cu         Cu      0.54732   0.65812   0.69126   0.34757
H          H       0.77631   0.10436   0.48641   0.07350
H          H       0.77033   0.94340   0.64802   0.09506
H          H       0.17938   0.75720   0.50319   0.08053
H          H       0.89360   0.12858   0.13601   0.08017
H          H       0.73746   0.98998   0.19379   0.05151
H          H       0.77556   0.00990   0.94464   0.11944
H          H       0.06745   0.88646   0.76262   0.07548
H          H       0.73115   0.70259   0.93287   0.06978
H          H       0.48846   0.83547   0.12004   0.12867
H          H       0.94433   0.65358   0.43244   0.10405
H          H       0.40562   0.47463   0.36998   0.10223
H          H       0.04506   0.18308   0.56757   0.10758
H          H       0.09875   0.60084   0.86227   0.05887
H          H       0.01011   0.45331   0.79746   0.05489
H          H       0.93972   0.59754   0.06619   0.12496
H          H       0.00037   0.48275   0.24837   0.08729
H          H       0.50419   0.12159   0.07074   0.06820
H          H       0.48201   0.22698   0.87587   0.13663
C          C       0.64887   0.02451   0.48825   0.07879
C          C       0.64880   0.93237   0.57738   0.03509
C          C       0.32917   0.82620   0.49815   0.00182
C          C       0.33898   0.91379   0.40580   0.08967
C          C       0.15637   0.90404   0.31314   0.39369
C          C       0.95248   0.02028   0.16084  -0.05322
C          C       0.10588   0.93192   0.05113   0.13283
C          C       0.98372   0.94152   0.94824  -0.18864
C          C       0.15298   0.87647   0.84402   0.08758
C          C       0.52931   0.77899   0.93742   0.07610
C          C       0.38083   0.84685   0.04417  -0.18482
C          C       0.97017   0.55190   0.46892  -0.00702
C          C       0.22320   0.45110   0.43047   0.02928
C          C       0.02372   0.28890   0.53794   0.00920
C          C       0.78022   0.39133   0.58448   0.09245
C          C       0.54848   0.36717   0.68261   0.41378
C          C       0.18318   0.48911   0.83982  -0.04564
C          C       0.20656   0.42063   0.95379   0.16100
C          C       0.06754   0.49075   0.06099  -0.17153
C          C       0.10123   0.42728   0.16495   0.08405
C          C       0.39160   0.22858   0.06426   0.06881
C          C       0.37310   0.28616   0.95747  -0.16104
N          N       0.48835   0.01918   0.40426  -0.20202
N          N       0.48123   0.83565   0.58552  -0.19951
N          N       0.12736   0.01883   0.25080  -0.44636
N          N       0.41960   0.79400   0.83671  -0.23074
N          N       0.75036   0.52406   0.54773  -0.24500
N          N       0.24578   0.31617   0.45837  -0.23025
N          N       0.45542   0.47901   0.75923  -0.46679
N          N       0.26155   0.29778   0.16806  -0.22951
O          O       0.04388   0.79911   0.30373  -0.51865
O          O       0.46555   0.25148   0.68577  -0.50808

