data_crystal

_audit_creation_method 'AiiDA-DDEC plugin'

_cell_length_a         9.37846
_cell_length_b         9.50293
_cell_length_c        12.30341

_cell_angle_alpha     88.96946
_cell_angle_beta     79.43375
_cell_angle_gamma     125.77831

_symmetry_space_group_name_Hall 'P 1'
_symmetry_space_group_name_H-M  'P 1'

loop_
_symmetry_equiv_pos_as_xyz
 'x,y,z'

loop_
_atom_site_label
_atom_site_type_symbol
_atom_site_fract_x
_atom_site_fract_y
_atom_site_fract_z
_atom_site_charge
Cd         Cd      0.58970   0.00704   0.70428   0.93412
Cd         Cd      0.41063   0.99266   0.29553   0.93810
Cd         Cd      0.49876  -0.00098  -0.00003   1.14708
H          H       0.27930   0.41798   0.98390   0.08703
H          H       0.55033   0.45929   0.86364   0.10307
H          H       0.46930   0.45787   0.74404   0.09245
H          H       0.26710   0.16090   0.93894   0.08328
H          H       0.05711   0.99318   0.81566   0.10010
H          H       0.18470   0.17405   0.71037   0.09407
H          H       0.96918   0.14280   0.94047   0.09234
H          H       0.06936   0.43874   0.89588   0.11053
H          H       0.19602   0.46469   0.76277   0.07994
H          H       0.45103   0.64848   0.60228   0.10643
H          H       0.18859   0.41697   0.53422   0.13009
H          H       0.02316   0.76531   0.51974   0.14114
H          H       0.29261   0.97992   0.59104   0.10437
H          H       0.72010   0.58125   0.01584   0.08720
H          H       0.45019   0.54103   0.13591   0.10167
H          H       0.52841   0.54063   0.25565   0.09222
H          H       0.73247   0.83868   0.06089   0.08489
H          H       0.94194   0.00564   0.18461   0.09919
H          H       0.81527   0.82621   0.28997   0.09485
H          H       0.02936   0.85624   0.05951   0.09346
H          H       0.92966   0.56022   0.10490   0.11134
H          H       0.80251   0.53463   0.23789   0.08058
H          H       0.54861   0.35180   0.39799   0.10409
H          H       0.81158   0.58398   0.46486   0.13201
H          H       0.97604   0.23602   0.48264   0.13950
H          H       0.70830   0.02195   0.40832   0.10112
C          C       0.43410   0.66986   0.88309   0.62311
C          C       0.32210   0.47041   0.89495  -0.10543
C          C       0.42852   0.40885   0.83292  -0.18486
C          C       0.31008   0.20972   0.84942  -0.10705
C          C       0.40502   0.13492   0.79614   0.61340
C          C       0.14195   0.13545   0.80102  -0.18687
C          C       0.03277   0.20187   0.85254  -0.09742
C          C       0.88070   0.15139   0.79615   0.60655
C          C       0.15223   0.40262   0.84895  -0.17983
C          C       0.35366   0.66988   0.58141   0.10462
C          C       0.20561   0.53994   0.54356  -0.13466
C          C       0.08244   0.56808   0.51932   0.11188
C          C       0.11344   0.73111   0.53618  -0.17310
C          C       0.26186   0.85282   0.57648   0.06317
C          C       0.56632   0.33073   0.11654   0.62375
C          C       0.67807   0.53024   0.10484  -0.10608
C          C       0.57152   0.59184   0.16682  -0.18333
C          C       0.68897   0.79087   0.15053  -0.10808
C          C       0.59474   0.86528   0.20474   0.61531
C          C       0.85684   0.86345   0.19946  -0.18895
C          C       0.96609   0.79769   0.14755  -0.09687
C          C       0.11796   0.84851   0.20449   0.61046
C          C       0.84750   0.59722   0.15155  -0.18038
C          C       0.64552   0.33085   0.41945   0.10163
C          C       0.79232   0.46090   0.45701  -0.13867
C          C       0.92177   0.43269   0.47957   0.10773
C          C       0.88740   0.27020   0.46283  -0.17727
C          C       0.73507   0.14778   0.42395   0.07190
N          N       0.38621   0.82688   0.59646  -0.24957
N          N       0.61353   0.17440   0.40324  -0.24647
O          O       0.51121   0.74756   0.78348  -0.58176
O          O       0.43218   0.73484   0.97304  -0.58817
O          O       0.89025   0.12508   0.69444  -0.56650
O          O       0.74572   0.14116   0.85212  -0.60855
O          O       0.50438   0.19999   0.69880  -0.56221
O          O       0.37379  -0.00299   0.84806  -0.62434
O          O       0.48882   0.25197   0.21600  -0.58519
O          O       0.56682   0.26394   0.02726  -0.59133
O          O       0.11198   0.87432   0.30520  -0.56283
O          O       0.25252   0.85605   0.14871  -0.61888
O          O       0.49745   0.80078   0.30244  -0.56192
O          O       0.62485   0.00141   0.15165  -0.62319

