data_crystal

_audit_creation_method 'AiiDA-DDEC plugin'

_cell_length_a         8.60593
_cell_length_b         4.48470
_cell_length_c        12.44248

_cell_angle_alpha     113.54788
_cell_angle_beta     115.51593
_cell_angle_gamma     56.69230

_symmetry_space_group_name_Hall 'P 1'
_symmetry_space_group_name_H-M  'P 1'

loop_
_symmetry_equiv_pos_as_xyz
 'x,y,z'

loop_
_atom_site_label
_atom_site_type_symbol
_atom_site_fract_x
_atom_site_fract_y
_atom_site_fract_z
_atom_site_charge
Cu         Cu      0.27613   0.93388   0.00184   0.89539
Cu         Cu      0.76553   0.87077  -0.00073   0.87532
H          H       0.83622   0.70437   0.41852   0.11337
H          H       0.00161   0.81882   0.64347   0.09820
H          H       0.07766   0.77697   0.51740   0.10290
H          H       0.01241   0.69647   0.29689   0.12541
H          H       0.42854   0.27558   0.59365   0.11509
H          H       0.35228   0.20803   0.36796   0.09840
H          H       0.56853   0.24801   0.48444   0.10197
H          H       0.73355   0.35408   0.70303   0.12084
C          C       0.81144   0.63354   0.48157  -0.09500
C          C       0.90082   0.70480   0.60680  -0.07355
C          C       0.14177   0.86471   0.48597  -0.09483
C          C       0.09316   0.84508   0.36235  -0.05633
C          C       0.33580   0.15112   0.52803  -0.09127
C          C       0.28466   0.13592   0.40335  -0.07774
C          C       0.65834   0.38188   0.51796  -0.10005
C          C       0.74781   0.45001   0.64195  -0.04930
C          C       0.69058   0.47073   0.43579  -0.01079
C          C       0.86783   0.61541   0.68805  -0.08026
C          C       0.96419   0.66954   0.82103   0.60402
C          C       0.61857   0.34977   0.30555   0.24601
C          C       0.26529   0.01967   0.57095  -0.00666
C          C       0.16272   0.97825   0.31924  -0.06580
C          C       0.12095   0.90833   0.18446   0.60470
C          C       0.33019   0.00916   0.69844   0.24598
N          N       0.49835   0.06103   0.13720  -0.11122
N          N       0.50168   0.18986   0.25495  -0.17390
N          N       0.51218   0.97298   0.87785  -0.13354
N          N       0.48620   0.05862   0.77912  -0.22486
N          N       0.37623   0.88306   0.86179  -0.10852
N          N       0.26119   0.90367   0.74776  -0.17554
N          N       0.61183   0.14786   0.11913  -0.14319
N          N       0.68685   0.33082   0.22182  -0.21968
O          O       0.92044   0.57045   0.88320  -0.59921
O          O       0.20117  -0.00317   0.14427  -0.53466
O          O       0.01289   0.74915   0.12289  -0.58942
O          O       0.08593   0.79548   0.86054  -0.53225

