data_crystal

_audit_creation_method 'AiiDA-DDEC plugin'

_cell_length_a         6.27485
_cell_length_b        15.21600
_cell_length_c        15.19496

_cell_angle_alpha     118.13744
_cell_angle_beta     97.91684
_cell_angle_gamma     97.88936

_symmetry_space_group_name_Hall 'P 1'
_symmetry_space_group_name_H-M  'P 1'

loop_
_symmetry_equiv_pos_as_xyz
 'x,y,z'

loop_
_atom_site_label
_atom_site_type_symbol
_atom_site_fract_x
_atom_site_fract_y
_atom_site_fract_z
_atom_site_charge
Cu         Cu      0.56549   0.42469   0.73565   0.99822
Cu         Cu      0.82992   0.26387   0.68915   0.99830
Cu         Cu      0.14023   0.31036   0.57440   0.99726
Cu         Cu      0.43452   0.57530   0.26435   0.99818
Cu         Cu      0.17010   0.73613   0.31086   0.99831
Cu         Cu      0.85979   0.68964   0.42560   0.99717
H          H       0.17378   0.54801   0.57009   0.14517
H          H       0.60385   0.43008   0.97816   0.14509
H          H       0.62556   0.02174   0.45178   0.14556
H          H       0.82624   0.45199   0.42992   0.14529
H          H       0.39616   0.56992   0.02184   0.14519
H          H       0.37445   0.97826   0.54822   0.14558
C          C       0.78490   0.40111   0.57083   0.63254
C          C       0.62849   0.44743   0.53310  -0.13748
C          C       0.43864   0.47269   0.57223   0.29363
C          C       0.31719   0.52709   0.53969  -0.17230
C          C       0.21404   0.42852   0.83017   0.63180
C          C       0.09541   0.46654   0.91427  -0.13769
C          C       0.86655   0.42749   0.90054   0.29498
C          C       0.77760   0.46040   0.98755  -0.17257
C          C       0.38361   0.16960   0.59843   0.63045
C          C       0.18095   0.08564   0.55232  -0.13755
C          C       0.96572   0.09933   0.52691   0.29294
C          C       0.78999   0.01240   0.47278  -0.17206
C          C       0.21510   0.59888   0.42917   0.63264
C          C       0.37153   0.55257   0.46691  -0.13749
C          C       0.56138   0.52731   0.42777   0.29338
C          C       0.68283   0.47291   0.46031  -0.17215
C          C       0.78598   0.57148   0.16983   0.63189
C          C       0.90461   0.53346   0.08574  -0.13762
C          C       0.13347   0.57251   0.09946   0.29421
C          C       0.22242   0.53960   0.01245  -0.17240
C          C       0.61640   0.83040   0.40158   0.63046
C          C       0.81907   0.91436   0.44768  -0.13790
C          C       0.03429   0.90067   0.47310   0.29367
C          C       0.21003   0.98760   0.52723  -0.17233
O          O       0.79730   0.40818   0.65930  -0.64324
O          O       0.91702   0.35930   0.51570  -0.51668
O          O       0.36505   0.44499   0.63757  -0.59993
O          O       0.13825   0.34000   0.74898  -0.64254
O          O       0.40109   0.48355   0.84325  -0.51670
O          O       0.72776   0.36190   0.80752  -0.60046
O          O       0.38884   0.25068   0.59097  -0.64099
O          O       0.55760   0.15652   0.64046  -0.51642
O          O       0.91955   0.19219   0.55424  -0.59929
O          O       0.20272   0.59182   0.34070  -0.64319
O          O       0.08300   0.64070   0.48431  -0.51684
O          O       0.63496   0.55501   0.36243  -0.59974
O          O       0.86176   0.66000   0.25102  -0.64251
O          O       0.59893   0.51645   0.15675  -0.51684
O          O       0.27226   0.63810   0.19248  -0.60004
O          O       0.61118   0.74932   0.40903  -0.64111
O          O       0.44242   0.84348   0.35954  -0.51631
O          O       0.08047   0.80781   0.44576  -0.59954

