data_crystal

_audit_creation_method 'AiiDA-DDEC plugin'

_cell_length_a         8.71793
_cell_length_b        10.19976
_cell_length_c        10.28527

_cell_angle_alpha     72.07326
_cell_angle_beta     67.90605
_cell_angle_gamma     47.82324

_symmetry_space_group_name_Hall 'P 1'
_symmetry_space_group_name_H-M  'P 1'

loop_
_symmetry_equiv_pos_as_xyz
 'x,y,z'

loop_
_atom_site_label
_atom_site_type_symbol
_atom_site_fract_x
_atom_site_fract_y
_atom_site_fract_z
_atom_site_charge
Cu         Cu      0.31535   0.42888   0.53506   1.16514
Cu         Cu      0.31986   0.25924   0.82615   0.93805
Cu         Cu      0.20141   0.20751   0.19032   1.03062
Cu         Cu      0.69171   0.56083   0.46519   1.16518
Cu         Cu      0.68581   0.73945   0.17516   1.11100
Cu         Cu      0.79855   0.79295   0.80874   1.14538
P          P       0.90077   0.47018   0.71079   1.31519
P          P       0.64761   0.06353  -0.00031   1.27040
P          P       0.71984   0.38240   0.29521   1.23718
P          P       0.10262   0.52671   0.28830   1.31089
P          P       0.35737   0.93155   0.00226   1.27821
P          P       0.28430   0.61469   0.70387   1.24270
H          H       0.79829   0.23374   0.77326   0.14417
H          H       0.65104   0.17244   0.22781   0.14158
H          H       0.84711   0.48866   0.00183   0.06175
H          H       0.20299   0.76326   0.22736   0.14298
H          H       0.35170   0.82591   0.77287   0.14165
H          H       0.16361   0.50356   0.99625   0.05807
C          C       0.83343   0.36712   0.87340  -0.17849
C          C       0.78675   0.26015   0.87267  -0.00530
C          C       0.72215   0.18971   0.00063  -0.17089
C          C       0.70408   0.22542   0.12911  -0.00470
C          C       0.75071   0.33268   0.12976  -0.17545
C          C       0.81637   0.40157   0.00184  -0.05896
C          C       0.17187   0.62810   0.12585  -0.18512
C          C       0.21590   0.73654   0.12757  -0.00644
C          C       0.27992   0.80779   0.00013  -0.16792
C          C       0.29944   0.77184   0.87120  -0.00508
C          C       0.25582   0.66282   0.86955  -0.17472
C          C       0.19147   0.59241   0.99706  -0.07038
O          O       0.58783   0.33540   0.40999  -0.74439
O          O       0.86680   0.43413   0.59503  -0.73113
O          O       0.14792   0.36635   0.68463  -0.80408
O          O       0.93617   0.27889   0.32913  -0.72778
O          O       0.39421   0.20134   0.00602  -0.76880
O          O       0.76446   0.98212   0.85814  -0.75971
O          O       0.76646   0.66723   0.72858  -0.75982
O          O       0.60106   0.58882   0.28750  -0.79080
O          O       0.68081   0.94021   0.13553  -0.75153
O          O       0.41540   0.66207   0.58793  -0.74443
O          O       0.13936   0.55937   0.40416  -0.72441
O          O       0.85525   0.63083   0.31461  -0.82562
O          O       0.06605   0.71886   0.67417  -0.76228
O          O       0.60672   0.78855  -0.00013  -0.84587
O          O       0.23715   0.01597   0.14359  -0.73845
O          O       0.23593   0.32865   0.27205  -0.71974
O          O       0.40550   0.40778   0.71037  -0.76595
O          O       0.33340   0.05141   0.86475  -0.73191

