data_crystal

_audit_creation_method 'AiiDA-DDEC plugin'

_cell_length_a         6.49979
_cell_length_b        12.81787
_cell_length_c        14.65879

_cell_angle_alpha     89.99349
_cell_angle_beta     89.98436
_cell_angle_gamma     101.74245

_symmetry_space_group_name_Hall 'P 1'
_symmetry_space_group_name_H-M  'P 1'

loop_
_symmetry_equiv_pos_as_xyz
 'x,y,z'

loop_
_atom_site_label
_atom_site_type_symbol
_atom_site_fract_x
_atom_site_fract_y
_atom_site_fract_z
_atom_site_charge
Cu         Cu     -0.00000   0.00000   0.50000   1.00511
Cu         Cu      0.50001   0.50000   0.00000   1.00533
Cu         Cu      0.00001   0.49999  -0.00000   1.02953
Cu         Cu      0.50001  -0.00001   0.50000   1.02931
H          H       0.43685   0.05878   0.29853   0.13722
H          H       0.34806   0.18671   0.16797   0.14277
H          H       0.06354   0.44093   0.79863   0.13760
H          H       0.15211   0.31297   0.66804   0.14251
H          H       0.56314   0.94122   0.70148   0.13719
H          H       0.65193   0.81328   0.83203   0.14270
H          H       0.93646   0.55907   0.20138   0.13768
H          H       0.84789   0.68703   0.33197   0.14250
C          C       0.86472   0.10834   0.37066   0.58891
C          C       0.74964   0.15993   0.30444  -0.13899
C          C       0.54400   0.12890   0.27295  -0.09415
C          C       0.49672   0.19683   0.20381  -0.09552
C          C       0.66675   0.27902   0.18449  -0.13047
C          C       0.67884   0.36495   0.11704   0.60460
C          C       0.63543   0.39162   0.87071   0.58928
C          C       0.75053   0.33997   0.80453  -0.13883
C          C       0.95625   0.37088   0.77304  -0.09509
C          C       0.00343   0.30293   0.70389  -0.09490
C          C       0.83325   0.22086   0.68456  -0.13035
C          C       0.82108   0.13503   0.61703   0.60453
C          C       0.13528   0.89165   0.62934   0.58874
C          C       0.25035   0.84006   0.69556  -0.13884
C          C       0.45599   0.87110   0.72705  -0.09423
C          C       0.50327   0.80316   0.79619  -0.09538
C          C       0.33325   0.72097   0.81551  -0.13056
C          C       0.32116   0.63504   0.88296   0.60468
C          C       0.36456   0.60838   0.12930   0.58922
C          C       0.24947   0.66003   0.19547  -0.13884
C          C       0.04375   0.62911   0.22696  -0.09512
C          C      -0.00343   0.69706   0.29611  -0.09486
C          C       0.16675   0.77913   0.31545  -0.13030
C          C       0.17892   0.86497   0.38297   0.60451
S          S       0.88524   0.27269   0.24946   0.22695
S          S       0.61476   0.22729   0.74954   0.22680
S          S       0.11476   0.72730   0.75054   0.22700
S          S       0.38524   0.77271   0.25046   0.22671
O          O       0.75828   0.03248   0.42474  -0.62610
O          O       0.06005   0.13163   0.37669  -0.50771
O          O       0.50924   0.37726   0.07949  -0.52030
O          O       0.86459   0.42166   0.10399  -0.60462
O          O       0.74182   0.46748   0.92475  -0.62639
O          O       0.44009   0.36839   0.87671  -0.50769
O          O       0.99070   0.12270   0.57948  -0.52050
O          O       0.63527   0.07843   0.60393  -0.60415
O          O       0.24172   0.96752   0.57526  -0.62615
O          O       0.93994   0.86837   0.62332  -0.50762
O          O       0.49076   0.62273   0.92051  -0.52041
O          O       0.13541   0.57833   0.89601  -0.60456
O          O       0.25818   0.53251   0.07525  -0.62636
O          O       0.55991   0.63161   0.12329  -0.50768
O          O       0.00930   0.87729   0.42052  -0.52047
O          O       0.36473   0.92157   0.39607  -0.60424

