data_crystal

_audit_creation_method 'AiiDA-DDEC plugin'

_cell_length_a        12.40900
_cell_length_b        12.70431
_cell_length_c        12.70480

_cell_angle_alpha     76.20879
_cell_angle_beta     60.76457
_cell_angle_gamma     60.75671

_symmetry_space_group_name_Hall 'P 1'
_symmetry_space_group_name_H-M  'P 1'

loop_
_symmetry_equiv_pos_as_xyz
 'x,y,z'

loop_
_atom_site_label
_atom_site_type_symbol
_atom_site_fract_x
_atom_site_fract_y
_atom_site_fract_z
_atom_site_charge
In         In      0.06419   0.87482   0.50376   1.54938
In         In      0.44277   0.12514   0.49630   1.54890
In         In      0.68895   0.00381   0.62528   1.54919
In         In      0.31800   0.99620   0.37482   1.54950
H          H       0.00987   0.94498   0.18674   0.11805
H          H       0.14148   0.05501   0.81342   0.12162
H          H       0.70480   0.68668   0.55504   0.12154
H          H       0.94677   0.31327   0.44491   0.12090
H          H       0.73597   0.31448   0.56109   0.12505
H          H       0.61156   0.68544   0.43879   0.12518
H          H       0.04703   0.93884   0.81456   0.12193
H          H       0.80033   0.06109   0.18556   0.12497
H          H       0.88660   0.02760   0.41897   0.39448
H          H       0.33319   0.97241   0.58110   0.39460
H          H       0.66418   0.91880   0.47267   0.39469
H          H       0.05553   0.08110   0.52765   0.39455
H          H       0.37518   0.00009   0.00007   0.14280
H          H       0.12521   0.50009   0.50011   0.14300
H          H       0.37499   0.49996   0.50003   0.14198
H          H       0.62498  -0.00004   0.00000   0.14196
C          C       0.19027   0.97479   0.10615  -0.03317
C          C       0.07981   0.97126   0.10483  -0.12841
C          C       0.20148   0.95353   0.22244   0.60941
C          C       0.27107   0.02530   0.89400  -0.03332
C          C       0.15580   0.02875   0.89532  -0.13101
C          C       0.37729   0.04656   0.77769   0.60981
C          C       0.91500   0.60613   0.52531  -0.03408
C          C       0.80108   0.60477   0.52876  -0.13090
C          C       0.90489   0.72245   0.54660   0.61020
C          C       0.04647   0.39393   0.47478  -0.03319
C          C       0.93474   0.39521   0.47122  -0.12998
C          C       0.17404   0.27765   0.45356   0.60903
C          C       0.55694   0.39531   0.52967  -0.03155
C          C       0.66777   0.39618   0.53280  -0.12918
C          C       0.54200   0.28097   0.55433   0.61114
C          C       0.48193   0.60461   0.47030  -0.03187
C          C       0.59680   0.60373   0.46711  -0.12964
C          C       0.37727   0.71894   0.44564   0.61378
C          C       0.83657   0.97030   0.89536  -0.03136
C          C       0.95054   0.96713   0.89626  -0.12683
C          C       0.84627   0.94572   0.78101   0.61351
C          C       0.70221   0.02961   0.10470  -0.03124
C          C       0.81388   0.03279   0.10384  -0.12897
C          C       0.57293   0.05422   0.21904   0.61212
C          C       0.28762   0.00006   0.00007  -0.09260
C          C       0.05967  -0.00002   0.00008   0.06685
C          C       0.03767   0.50005   0.50007  -0.09316
C          C       0.80978   0.49998   0.49996   0.06667
C          C       0.46255   0.49996   0.50000  -0.09856
C          C       0.69032   0.49996   0.49994   0.06070
C          C       0.71251  -0.00004   0.00002  -0.09877
C          C       0.94022  -0.00004   0.00006   0.06069
O          O       0.13902   0.89549   0.30425  -0.59989
O          O       0.27070  -0.00210   0.22935  -0.56371
O          O       0.33860   0.10442   0.69582  -0.60038
O          O       0.49777   0.00236   0.77081  -0.56388
O          O       0.78434   0.80425   0.60470  -0.60050
O          O       0.01848   0.72938   0.50218  -0.56375
O          O       0.19355   0.19577   0.39546  -0.59996
O          O       0.25007   0.27080   0.49802  -0.56341
O          O       0.59345   0.20283   0.62101  -0.57381
O          O       0.47917   0.27260   0.50350  -0.55617
O          O       0.41718   0.79717   0.37912  -0.57554
O          O       0.25528   0.72721   0.49630  -0.55715
O          O       0.96442   0.87914   0.70276  -0.57495
O          O       0.73254   0.99653   0.77273  -0.55726
O          O       0.54625   0.12079   0.29728  -0.57439
O          O       0.50171   0.00346   0.22729  -0.55685
O          O       0.87695   0.02062   0.50083  -0.90234
O          O       0.39841   0.97937   0.49923  -0.90205
O          O       0.64758   0.00069   0.47953  -0.90222
O          O       0.12780  -0.00077   0.52055  -0.90218

