data_crystal

_audit_creation_method 'AiiDA-DDEC plugin'

_cell_length_a        11.06598
_cell_length_b         5.58232
_cell_length_c        11.05349

_cell_angle_alpha     89.94207
_cell_angle_beta     90.00316
_cell_angle_gamma     90.03441

_symmetry_space_group_name_Hall 'P 1'
_symmetry_space_group_name_H-M  'P 1'

loop_
_symmetry_equiv_pos_as_xyz
 'x,y,z'

loop_
_atom_site_label
_atom_site_type_symbol
_atom_site_fract_x
_atom_site_fract_y
_atom_site_fract_z
_atom_site_charge
Cu         Cu      0.00499   0.87622   0.74726   0.91516
Cu         Cu      0.00034   0.62371   0.24738   0.91536
Cu         Cu      0.50507   0.12366   0.75278   0.91491
Cu         Cu      0.50008   0.37522   0.25267   0.91445
H          H       0.75205  -0.00225   0.67500   0.05656
H          H       0.07787   0.74295   0.49855   0.05752
H          H       0.25365   0.50397   0.17514   0.05637
H          H       0.92745   0.75615  -0.00150   0.05695
H          H       0.25197   0.00253   0.82502   0.05666
H          H       0.57792   0.25470   0.00181   0.05723
H          H       0.75303   0.49775   0.32513   0.05628
H          H       0.42743   0.24249   0.50162   0.05770
C          C       0.75539   0.00886   0.77430   0.50039
C          C       0.97862   0.75412   0.49751   0.49878
C          C       0.24984   0.48888   0.27431   0.49976
C          C       0.02671   0.74558  -0.00246   0.49952
C          C       0.25535   0.99112   0.72574   0.49944
C          C       0.47862   0.24510   0.00253   0.49821
C          C       0.74977   0.50902   0.22583   0.50061
C          C       0.52667   0.25401   0.50257   0.49857
O          O       0.85327   0.95719   0.82910  -0.50834
O          O       0.66157   0.07344   0.83269  -0.50640
O          O       0.92285   0.82229   0.59238  -0.50716
O          O       0.92126   0.69875   0.40159  -0.50642
O          O       0.15215   0.54156   0.32916  -0.50848
O          O       0.34291   0.41870   0.33237  -0.50568
O          O       0.08251   0.67774   0.09254  -0.50710
O          O       0.08405   0.80127   0.90161  -0.50652
O          O       0.35330   0.04257   0.67095  -0.50787
O          O       0.16151   0.92644   0.66734  -0.50585
O          O       0.42284   0.17777   0.90748  -0.50669
O          O       0.42118   0.30134   0.09822  -0.50582
O          O       0.65183   0.45765   0.17100  -0.50826
O          O       0.84371   0.57342   0.16746  -0.50638
O          O       0.58234   0.32240   0.40758  -0.50696
O          O       0.58415   0.19881   0.59847  -0.50649

