data_crystal

_audit_creation_method 'AiiDA-DDEC plugin'

_cell_length_a         4.15199
_cell_length_b         9.60072
_cell_length_c        19.47873

_cell_angle_alpha     97.01656
_cell_angle_beta     83.92337
_cell_angle_gamma     84.17944

_symmetry_space_group_name_Hall 'P 1'
_symmetry_space_group_name_H-M  'P 1'

loop_
_symmetry_equiv_pos_as_xyz
 'x,y,z'

loop_
_atom_site_label
_atom_site_type_symbol
_atom_site_fract_x
_atom_site_fract_y
_atom_site_fract_z
_atom_site_charge
Zn         Zn      0.58432   0.04875   0.35472  -0.06688
Zn         Zn      0.16806   0.52992   0.87122  -0.06566
H          H       0.74342   0.59984   0.73833   0.09497
H          H       0.41880   0.37469   0.09347   0.11416
H          H       0.83732   0.36078   0.60001   0.13381
H          H       0.17051   0.62557   0.04920   0.09811
H          H       0.08090   0.42674   0.44011   0.10622
H          H       0.23945   0.96547   0.77468   0.11158
H          H       0.54450   0.46139   0.21561   0.14757
H          H       0.40247   0.40720   0.30780   0.11769
H          H       0.09588   0.82897   0.43761   0.11615
H          H       0.54545   0.79674   0.08935   0.13585
H          H       0.38876   0.98240   0.07427   0.11509
H          H       0.59331   0.39037   0.73313   0.12703
H          H       0.33530   0.90220   0.56313   0.12160
H          H       0.29368   0.98499   0.66612   0.14391
H          H       0.44720   0.97635   0.90549   0.10880
H          H       0.04994   0.24653   0.09779   0.10689
H          H       0.53394   0.69131   0.32985   0.09534
H          H       0.52321   0.98769   0.21283   0.08374
H          H       0.73484   0.78623   0.24290   0.11359
H          H       0.95390   0.24984   0.79489   0.09579
H          H       0.60389   0.57701   0.59864   0.10446
H          H       0.51195   0.18854   0.54419   0.10223
H          H       0.72918   0.28916   0.95797   0.11159
H          H       0.85842   0.86513   0.70815   0.10196
C          C       0.58383   0.62443   0.14977   0.23262
C          C       0.69177   0.09685   0.53368   0.07998
C          C       0.20337   0.48242   0.33361  -0.13266
C          C       0.80769   0.16595   0.80503   0.07518
C          C       0.03219   0.53649   0.04657   0.05574
C          C       0.26475   0.09918   0.66719  -0.32443
C          C       0.12397   0.61624   0.23534   0.19159
C          C       0.01386   0.48039   0.39697   0.00574
C          C       0.58595   0.42446   0.06126  -0.11961
C          C       0.42423   0.74885   0.13088  -0.30658
C          C       0.21761   0.38945   0.66495   0.13790
C          C       0.77213   0.37258   0.99760   0.01161
C          C       0.06079   0.16259   0.62515   0.21915
C          C       0.00950   0.91553   0.47852  -0.02708
C          C       0.15108   0.95556   0.53770  -0.09665
C          C       0.70791   0.60622   0.33904   0.06749
C          C       0.91055   0.62947   0.69764  -0.12583
C          C       0.12148   0.80401   0.16282   0.18536
C          C       0.94056   0.72736   0.20900  -0.22425
C          C       0.38874   0.03520   0.80052  -0.11564
C          C       0.01509   0.31053   0.62875  -0.27281
C          C       0.41879   0.61877   0.64151   0.05116
C          C       0.42439   0.55879   0.20263  -0.29735
C          C       0.99269   0.15302   0.11984   0.00986
C          C       0.18769   0.02431   0.11324  -0.12662
C          C       0.00054   0.76430   0.69040   0.01727
C          C       0.44542   0.32631   0.70247  -0.25788
C          C       0.52303   0.03219   0.86265  -0.01107
C          C       0.69652   0.01797   0.17355   0.06754
C          C       0.44135   0.18278   0.70900   0.23004
N          N       0.99131   0.93639   0.14779  -0.01856
N          N       0.94063   0.07300   0.57377  -0.00874
N          N       0.77442   0.11151   0.86485  -0.27272
N          N       0.71941   0.55658   0.40019  -0.29856
N          N       0.03694   0.44232   0.98908  -0.23725
N          N       0.76457   0.52653   0.09279  -0.04633
N          N      -0.00019   0.56351   0.29592  -0.01150
N          N       0.73175   0.00197   0.47662  -0.23476
N          N       0.30128   0.75718   0.65562  -0.29253
N          N       0.58002   0.12107   0.76254  -0.02536
N          N       0.18382   0.53923   0.66660  -0.03052
N          N       0.70034   0.14901   0.15681  -0.29850

