data_crystal

_audit_creation_method 'AiiDA-DDEC plugin'

_cell_length_a        10.56363
_cell_length_b         9.62452
_cell_length_c         9.58541

_cell_angle_alpha     93.13988
_cell_angle_beta     90.50788
_cell_angle_gamma     124.09551

_symmetry_space_group_name_Hall 'P 1'
_symmetry_space_group_name_H-M  'P 1'

loop_
_symmetry_equiv_pos_as_xyz
 'x,y,z'

loop_
_atom_site_label
_atom_site_type_symbol
_atom_site_fract_x
_atom_site_fract_y
_atom_site_fract_z
_atom_site_charge
Cd         Cd      0.21650   0.08428   0.04655   0.94274
Cd         Cd      0.78350   0.91576   0.95343   0.94268
H          H       0.41252   0.19115   0.53423   0.11935
H          H       0.45836   0.85115   0.26662   0.11592
H          H       0.10788   0.74068   0.17836   0.10622
H          H       0.21137   0.56075   0.16479   0.11997
H          H       0.06904   0.00582   0.73436   0.10507
H          H       0.00236   0.80306   0.52856   0.13446
H          H       0.27026   0.65327   0.73145   0.12945
H          H       0.33363   0.86868   0.92523   0.10752
H          H       0.09431   0.63202   0.39491   0.10489
H          H       0.16151   0.53545   0.49492   0.10847
H          H       0.58749   0.80889   0.46574   0.11930
H          H       0.54165   0.14889   0.73335   0.11602
H          H       0.89213   0.25938   0.82163   0.10622
H          H       0.78864   0.43930   0.83519   0.12006
H          H       0.93096   0.99423   0.26561   0.10503
H          H      -0.00234   0.19701   0.47140   0.13459
H          H       0.72975   0.34678   0.26851   0.12946
H          H       0.66636   0.13136   0.07475   0.10744
H          H       0.90571   0.36805   0.60505   0.10475
H          H       0.83850   0.46461   0.50503   0.10831
C          C       0.35461   0.05128   0.26991   0.53973
C          C       0.42795   0.02336   0.38918  -0.02303
C          C       0.45163   0.10830   0.52054  -0.10710
C          C       0.47636   0.91470   0.36946  -0.10644
C          C       0.88617   0.71232   0.01205   0.55805
C          C       0.94196   0.60004   0.00797  -0.02591
C          C       0.06122   0.63463   0.10101  -0.10473
C          C       0.11947   0.53591   0.09301  -0.09434
C          C       0.11217   0.92624   0.72836   0.08597
C          C       0.07430   0.81130   0.61506  -0.17940
C          C       0.12871   0.70768   0.61352   0.16596
C          C       0.22281   0.72836   0.72739  -0.18141
C          C       0.25856   0.84781   0.83659   0.09454
C          C       0.08355   0.57687   0.49503  -0.20238
C          C       0.64538   0.94876   0.73007   0.53989
C          C       0.57206   0.97668   0.61079  -0.02304
C          C       0.54838   0.89174   0.47943  -0.10721
C          C       0.52365   0.08534   0.63051  -0.10649
C          C       0.11383   0.28773   0.98793   0.55849
C          C       0.05805   0.40001   0.99201  -0.02615
C          C       0.93879   0.36542   0.89898  -0.10507
C          C       0.88054   0.46414   0.90698  -0.09451
C          C       0.88784   0.07381   0.27161   0.08609
C          C       0.92571   0.18876   0.38491  -0.17977
C          C       0.87130   0.29238   0.38644   0.16624
C          C       0.77719   0.27169   0.27257  -0.18123
C          C       0.74144   0.15223   0.16338   0.09451
C          C       0.91647   0.42320   0.50493  -0.20222
N          N       0.20300   0.94462   0.83813  -0.27221
N          N       0.79699   0.05542   0.16184  -0.27243
O          O       0.26641   0.09986   0.29447  -0.55304
O          O       0.38315   0.02374   0.14504  -0.56642
O          O       0.96222   0.85276   0.08670  -0.59750
O          O       0.76589   0.66740   0.93889  -0.52399
O          O       0.73357   0.90015   0.70553  -0.55307
O          O       0.61686   0.97632   0.85494  -0.56655
O          O       0.03779   0.14729   0.91327  -0.59783
O          O       0.23411   0.33263   0.06110  -0.52393

