data_crystal

_audit_creation_method 'AiiDA-DDEC plugin'

_cell_length_a         8.03812
_cell_length_b         8.04809
_cell_length_c        15.43264

_cell_angle_alpha     90.14279
_cell_angle_beta     90.15277
_cell_angle_gamma     96.54748

_symmetry_space_group_name_Hall 'P 1'
_symmetry_space_group_name_H-M  'P 1'

loop_
_symmetry_equiv_pos_as_xyz
 'x,y,z'

loop_
_atom_site_label
_atom_site_type_symbol
_atom_site_fract_x
_atom_site_fract_y
_atom_site_fract_z
_atom_site_charge
Zn         Zn      0.99323  -0.00060   0.75147   0.99595
Zn         Zn     -0.00043   0.99354   0.25177   0.99745
H          H       0.12115   0.22498   0.49849   0.15960
H          H       0.76865   0.87175   0.00479   0.16002
H          H       0.87066   0.76752   0.50474   0.16007
H          H       0.22401   0.11944  -0.00172   0.15986
C          C       0.97240   0.57796   0.58024   0.03269
C          C       0.03836   0.42099   0.57846   0.05062
C          C       0.07395   0.34641   0.49949  -0.12110
C          C       0.95449   0.67501   0.66337   0.56072
C          C       0.06836   0.32545   0.66014   0.56289
C          C       0.41424   0.01841   0.92284   0.03227
C          C       0.57181   0.95352   0.92475   0.05199
C          C       0.64697   0.91867   0.00371  -0.11925
C          C       0.31807   0.03590   0.83935   0.56251
C          C       0.66791   0.92442   0.84318   0.56253
C          C       0.02027   0.41507   0.42288   0.03218
C          C       0.95436   0.57198   0.42474   0.05190
C          C       0.91816   0.64625   0.50367  -0.12090
C          C       0.03838   0.31895   0.33945   0.56251
C          C       0.92489   0.66806   0.34320   0.56402
C          C       0.57900   0.97370   0.08016   0.03089
C          C       0.42143   0.03877   0.07831   0.05187
C          C       0.34576   0.07263  -0.00067  -0.12352
C          C       0.67650   0.95709   0.16333   0.56301
C          C       0.32666   0.07036   0.16005   0.56450
O          O       0.00728   0.83056   0.66012  -0.53560
O          O       0.88160   0.59088   0.72222  -0.35625
O          O       0.97868   0.18674   0.67059  -0.51882
O          O       0.18694   0.39605   0.70331  -0.33445
O          O       0.16325   0.97925   0.84125  -0.53710
O          O       0.40226   0.11200   0.78149  -0.35696
O          O       0.80648   0.01450   0.83284  -0.51846
O          O       0.59742   0.80576   0.80008  -0.33344
O          O       0.97931   0.16499   0.34087  -0.53683
O          O       0.11729   0.40241   0.28221  -0.35483
O          O       0.01429   0.80699   0.33309  -0.51961
O          O       0.80662   0.59713   0.29991  -0.33519
O          O       0.83283   0.00751   0.15947  -0.53848
O          O       0.59203   0.88751   0.22298  -0.35958
O          O       0.19085   0.97778   0.17345  -0.51898
O          O       0.39605   0.19381   0.20004  -0.33072

