data_crystal

_audit_creation_method 'AiiDA-DDEC plugin'

_cell_length_a        14.87237
_cell_length_b        14.55978
_cell_length_c        15.15055

_cell_angle_alpha     56.30147
_cell_angle_beta     138.66365
_cell_angle_gamma     139.31367

_symmetry_space_group_name_Hall 'P 1'
_symmetry_space_group_name_H-M  'P 1'

loop_
_symmetry_equiv_pos_as_xyz
 'x,y,z'

loop_
_atom_site_label
_atom_site_type_symbol
_atom_site_fract_x
_atom_site_fract_y
_atom_site_fract_z
_atom_site_charge
Cu         Cu      0.99034   0.42984   0.90876   0.80734
Cu         Cu      0.46998   0.94983   0.38362   0.81599
Cu         Cu      0.05873   0.44240   0.46776   0.83565
Cu         Cu      0.47037   0.38781   0.43063   0.80988
Cu         Cu      0.52303   0.60554   0.56676   0.80766
Cu         Cu      0.94433   0.56538   0.52541   0.82443
Cu         Cu      0.53031   0.04794   0.61674   0.81279
Cu         Cu      0.00588   0.57054   0.08705   0.80859
H          H       0.45401   0.58473   0.19488   0.12134
H          H       0.65198   0.20168   0.25246   0.12377
H          H       0.05713   0.22871   0.14495   0.12265
H          H       0.34669   0.79394   0.75857   0.13193
H          H       0.48797   0.16602   0.81377   0.14392
H          H       0.88804   0.70259   0.21449   0.15419
H          H       0.94588   0.77625   0.85417   0.12401
H          H       0.88525   0.15665   0.55071   0.10401
H          H       0.61251   0.80837   0.84328   0.15734
H          H       0.55166   0.41621   0.80609   0.12061
H          H       0.01376   0.18259   0.31836   0.14921
H          H       0.52360   0.83568   0.19207   0.14598
H          H       0.99494   0.82365   0.68155   0.14715
H          H       0.11570   0.85055   0.44379   0.10740
H          H       0.38593   0.17318   0.17462   0.15982
H          H       0.11210   0.30665   0.78137   0.15232
C          C       0.42118   0.59686   0.65435   0.54897
C          C       0.00946   0.24962   0.24190  -0.21624
C          C       0.99709   0.38990   0.27831   0.56436
C          C       0.34195   0.73206   0.72840   0.00357
C          C       0.61848   0.35475   0.31961   0.04474
C          C       0.86472   0.17885   0.73370   0.02592
C          C       0.65921   0.26212   0.28318  -0.01134
C          C       0.51805   0.75224   0.25717  -0.22454
C          C       0.99186   0.75376   0.75667  -0.21933
C          C       0.85994   0.15600   0.60026  -0.01617
C          C       0.97017   0.73044   0.84479   0.00697
C          C       0.98965   0.34372   0.20883   0.02805
C          C       0.48709   0.24763   0.74599  -0.22162
C          C       0.13723   0.82072   0.26758   0.02737
C          C       0.45962   0.24994   0.63676   0.03120
C          C       0.02784   0.77452   0.28140  -0.21090
C          C       0.52503   0.24887   0.24318  -0.21533
C          C       0.88893   0.23001   0.81567   0.57025
C          C       0.11207   0.77260   0.18272   0.56831
C          C       0.47307   0.74245   0.76429  -0.22096
C          C       0.00362   0.61353   0.71866   0.56703
C          C       0.02833   0.27117   0.15239   0.00330
C          C       0.55229   0.82754   0.40709   0.56902
C          C       0.97296   0.22748   0.71764  -0.20674
C          C       0.51499   0.36813   0.74047   0.01653
C          C       0.48914   0.63073   0.26121   0.01594
C          C       0.54153   0.74552   0.36598   0.03015
C          C       0.57843   0.40341   0.34453   0.54577
C          C       0.01079   0.66004   0.78818   0.03024
C          C       0.44404   0.16556   0.59399   0.57200
C          C       0.37810   0.64256   0.67996   0.04790
C          C       0.14146   0.84689   0.39870  -0.01711
N          N       0.50696   0.43702   0.63383  -0.17460
N          N       0.79620   0.42280   0.39989  -0.27407
N          N       0.30541   0.91516   0.37055  -0.25838
N          N       0.02099   0.37182   0.07220  -0.17029
N          N       0.52285   0.62884   0.42842  -0.25739
N          N       0.18197   0.64123   0.62269  -0.18440
N          N       0.99657   0.41601   0.10659  -0.25942
N          N       0.97774   0.63028   0.92358  -0.17271
N          N       0.49088   0.55856   0.36474  -0.17059
N          N       0.30778   0.93014   0.45109  -0.14923
N          N       0.47301   0.36416   0.57062  -0.25740
N          N       0.82202   0.36653   0.37717  -0.17286
N          N      -0.00001   0.58515   0.88781  -0.25778
N          N       0.69697   0.08152   0.63254  -0.25832
N          N       0.69429   0.06849   0.55099  -0.15157
N          N       0.20254   0.58367   0.59176  -0.29200
O          O       0.96917   0.31797   0.36256  -0.46970
O          O       0.95371   0.48788   0.74226  -0.55240
O          O       0.42331   0.05177   0.64533  -0.49335
O          O       0.03234   0.68457   0.63463  -0.47245
O          O       0.25408   0.82783   0.21751  -0.54539
O          O       0.04420   0.51400   0.25478  -0.55283
O          O       0.47349   0.22253   0.51229  -0.54346
O          O       0.96438   0.67560   0.08789  -0.50567
O          O       0.28657   0.49971   0.55879  -0.55585
O          O       0.51686   0.76955   0.48485  -0.54219
O          O       0.71439   0.50425   0.43691  -0.55418
O          O       0.74657   0.17807   0.77710  -0.55008
O          O       0.42435   0.34772   0.29001  -0.46977
O          O       0.57519   0.65093   0.71249  -0.46460
O          O       0.57104   0.94005   0.35427  -0.48833
O          O       0.03585   0.32655   0.90990  -0.50402

