data_crystal

_audit_creation_method 'AiiDA-DDEC plugin'

_cell_length_a         9.67346
_cell_length_b        10.91340
_cell_length_c         9.79873

_cell_angle_alpha     91.13274
_cell_angle_beta     68.94777
_cell_angle_gamma     87.40154

_symmetry_space_group_name_Hall 'P 1'
_symmetry_space_group_name_H-M  'P 1'

loop_
_symmetry_equiv_pos_as_xyz
 'x,y,z'

loop_
_atom_site_label
_atom_site_type_symbol
_atom_site_fract_x
_atom_site_fract_y
_atom_site_fract_z
_atom_site_charge
Cd         Cd     -0.00012   0.00018   0.00019   0.94220
Cd         Cd      0.00017   0.00003   0.50000   0.92885
H          H       0.60191   0.08679   0.68659   0.11782
H          H       0.79648   0.07348   0.22977   0.10203
H          H       0.57343   0.13795   0.17000   0.13627
H          H       0.39923   0.15500   0.31312   0.13178
H          H       0.34309   0.33211   0.18134   0.13833
H          H       0.24721   0.51160   0.11195   0.12347
H          H       0.35755   0.64149   0.06812   0.11585
H          H       0.95122   0.68466   0.59230   0.11976
H          H       0.20237   0.83301   0.18958   0.12944
H          H       0.51940   0.67754   0.23935   0.11911
H          H       0.69208   0.34267   0.35661   0.11490
H          H       0.78455   0.52647   0.40065   0.10981
H          H       0.65139   0.65267   0.44795   0.10253
H          H       0.07605   0.69061   0.94400   0.10756
H          H       0.74257   0.84623   0.32439   0.10178
H          H       0.39809   0.91338   0.31362   0.11794
H          H       0.20353   0.92662   0.77045   0.10226
H          H       0.42651   0.86210   0.83020   0.13628
H          H       0.60077   0.84514   0.68710   0.13164
H          H       0.65700   0.66800   0.81877   0.13884
H          H       0.75307   0.48849   0.88798   0.12329
H          H       0.64268   0.35860   0.93189   0.11594
H          H       0.04888   0.31531   0.40764   0.11987
H          H       0.79769   0.16706   0.81041   0.12949
H          H       0.48091   0.32252   0.76058   0.11884
H          H       0.30803   0.65738   0.64351   0.11492
H          H       0.21575   0.47357   0.59924   0.10974
H          H       0.34878   0.34728   0.55224   0.10223
H          H       0.92389   0.30983   0.05612   0.10741
H          H       0.25717   0.15387   0.67582   0.10214
C          C       0.61926   0.09737   0.57202   0.13101
C          C       0.72141   0.08637   0.34126   0.08652
C          C       0.51375   0.18405   0.27766  -0.15779
C          C       0.51821   0.32231   0.26854   0.10583
C          C       0.41925   0.38465   0.21546  -0.20511
C          C       0.41926   0.51210   0.20476   0.10510
C          C       0.30592   0.57739   0.15439  -0.14324
C          C       0.02965   0.69293   0.48194   0.14002
C          C       0.15693   0.77111   0.27892   0.06905
C          C       0.51868   0.57818   0.24761  -0.19808
C          C       0.61626   0.38908   0.31235  -0.20987
C          C       0.61624   0.51698   0.30318   0.11315
C          C       0.71725   0.58794   0.35883  -0.14499
C          C       0.98700   0.70169   0.04958   0.14242
C          C       0.81928   0.78478   0.24030   0.08324
C          C       0.38074   0.90276   0.42818   0.13109
C          C       0.27860   0.91374   0.65895   0.08658
C          C       0.48627   0.81604   0.72253  -0.15691
C          C       0.48189   0.67777   0.73158   0.10496
C          C       0.58087   0.61544   0.78464  -0.20521
C          C       0.58092   0.48798   0.79529   0.10475
C          C       0.69432   0.42271   0.84561  -0.14267
C          C       0.97047   0.30709   0.51803   0.13970
C          C       0.84319   0.22895   0.72106   0.06906
C          C       0.48153   0.42189   0.75240  -0.19758
C          C       0.38387   0.61099   0.68774  -0.20911
C          C       0.38391   0.48308   0.69688   0.11249
C          C       0.28291   0.41211   0.64124  -0.14470
C          C       0.01296   0.29869   0.95054   0.14221
C          C       0.18053   0.21538   0.75992   0.08245
S          S       0.80902   0.91278   0.85034   1.36376
S          S       0.19111   0.08735   0.14979   1.36378
N          N       0.58279   0.13599   0.37691   0.17064
N          N       0.51520   0.14547   0.52588  -0.28134
N          N       0.74921   0.05973   0.46158  -0.33321
N          N       0.19561   0.65084   0.27497   0.17386
N          N       0.11549   0.59880   0.40348  -0.26676
N          N       0.05095   0.80080   0.40938  -0.33081
N          N       0.81694   0.66162   0.24626   0.18136
N          N       0.92365   0.60668   0.12522  -0.26477
N          N       0.92738   0.81354   0.11695  -0.34626
N          N       0.41720   0.86408   0.62329   0.17058
N          N       0.48479   0.85465   0.47432  -0.28194
N          N       0.25077   0.94037   0.53863  -0.33348
N          N       0.80456   0.34924   0.72501   0.17401
N          N       0.88466   0.40123   0.59647  -0.26697
N          N       0.94915   0.19923   0.59060  -0.33092
N          N       0.18310   0.33852   0.75386   0.18112
N          N       0.07645   0.39361   0.87482  -0.26451
N          N       0.07242   0.18676   0.88332  -0.34532
O          O       0.78915   0.94726   0.70924  -0.66953
O          O       0.71447   0.81306   0.92048  -0.61857
O          O       0.97409   0.87815   0.81126  -0.70901
O          O       0.77479   0.02686   0.95387  -0.69270
O          O       0.21127   0.05278   0.29074  -0.66977
O          O       0.28567   0.18701   0.07955  -0.61800
O          O       0.02597   0.12197   0.18927  -0.70928
O          O       0.22503   0.97329   0.04622  -0.69268

