data_crystal

_audit_creation_method 'AiiDA-DDEC plugin'

_cell_length_a         7.76977
_cell_length_b         8.85284
_cell_length_c        11.75623

_cell_angle_alpha     90.02729
_cell_angle_beta     89.94597
_cell_angle_gamma     89.99726

_symmetry_space_group_name_Hall 'P 1'
_symmetry_space_group_name_H-M  'P 1'

loop_
_symmetry_equiv_pos_as_xyz
 'x,y,z'

loop_
_atom_site_label
_atom_site_type_symbol
_atom_site_fract_x
_atom_site_fract_y
_atom_site_fract_z
_atom_site_charge
Fe         Fe      0.24994   0.24398   0.25015   1.22155
Fe         Fe      0.24990   0.25600   0.74990   1.22037
Fe         Fe      0.75006   0.75601   0.74985   1.22161
Fe         Fe      0.75011   0.74399   0.25010   1.22032
H          H       0.50082   0.49363   0.16257   0.05472
H          H       0.50015   0.00632   0.83738   0.05418
H          H       0.99578   0.00919   0.66258   0.05448
H          H       0.99446   0.49031   0.33736   0.05418
H          H       0.49918   0.50637   0.83743   0.05469
H          H       0.49985   0.99368   0.16262   0.05422
H          H       0.00422   0.99081   0.33742   0.05447
H          H       0.00554   0.50968   0.66264   0.05415
H          H       0.15755   0.25000   0.00019   0.04893
H          H       0.34032   0.25057   0.49990   0.04758
H          H       0.84245   0.74999  -0.00020   0.04898
H          H       0.65969   0.74943   0.50010   0.04754
C          C       0.50063   0.49369   0.25603   0.50985
C          C       0.50037   0.00631   0.74392   0.51060
C          C      -0.00055   0.00638   0.75597   0.51117
C          C      -0.00093   0.49352   0.24399   0.51119
C          C       0.49937   0.50630   0.74397   0.50993
C          C       0.49964   0.99369   0.25607   0.51065
C          C       0.00055   0.99362   0.24403   0.51108
C          C       0.00094   0.50648   0.75601   0.51131
C          C       0.29910   0.24999   0.00008   0.52359
C          C       0.19875   0.25024   0.50000   0.52249
C          C       0.70090   0.75001  -0.00008   0.52365
C          C       0.80125   0.74976   0.50000   0.52235
O          O       0.59358   0.58761   0.31033  -0.47049
O          O       0.37846   0.24442   0.09484  -0.51935
O          O       0.40758   0.39986   0.31033  -0.47097
O          O       0.59351   0.91244   0.68964  -0.47083
O          O       0.37841   0.25556   0.90521  -0.51907
O          O       0.40752   0.10023   0.68963  -0.47089
O          O       0.90862   0.91100   0.81036  -0.47148
O          O       0.11949   0.25512   0.59494  -0.51899
O          O       0.09469   0.09865   0.81014  -0.47118
O          O       0.90880   0.58917   0.18955  -0.47092
O          O       0.11950   0.24501   0.40516  -0.51917
O          O       0.09478   0.40145   0.18990  -0.47153
O          O       0.40643   0.41238   0.68967  -0.47050
O          O       0.62154   0.75558   0.90515  -0.51943
O          O       0.59242   0.60014   0.68967  -0.47103
O          O       0.40649   0.08755   0.31036  -0.47090
O          O       0.62160   0.74444   0.09479  -0.51915
O          O       0.59248   0.89977   0.31037  -0.47090
O          O       0.09138   0.08899   0.18964  -0.47143
O          O       0.88051   0.74488   0.40506  -0.51882
O          O       0.90531   0.90135   0.18986  -0.47113
O          O       0.09120   0.41082   0.81045  -0.47094
O          O       0.88050   0.75499   0.59484  -0.51910
O          O       0.90522   0.59854   0.81010  -0.47164

