data_crystal

_audit_creation_method 'AiiDA-DDEC plugin'

_cell_length_a         6.77089
_cell_length_b        10.09165
_cell_length_c        12.16638

_cell_angle_alpha     108.67888
_cell_angle_beta     90.00000
_cell_angle_gamma     90.00000

_symmetry_space_group_name_Hall 'P 1'
_symmetry_space_group_name_H-M  'P 1'

loop_
_symmetry_equiv_pos_as_xyz
 'x,y,z'

loop_
_atom_site_label
_atom_site_type_symbol
_atom_site_fract_x
_atom_site_fract_y
_atom_site_fract_z
_atom_site_charge
Cu         Cu      0.25000   0.85243   0.23897   0.95603
Cu         Cu      0.75000   0.14765   0.76104   0.95607
Cu         Cu     -0.00000   0.00005   0.50000   0.82283
Cu         Cu      0.50000   0.00005   0.50000   0.82280
H          H       0.25000   0.41358   0.28007   0.13842
H          H       0.25000   0.04078   0.98306   0.13580
H          H       0.25000   0.44822   0.93655   0.13212
H          H       0.25000   0.08044   0.38268   0.34123
H          H       0.75000   0.58651   0.71994   0.13854
H          H       0.75000   0.95929   0.01696   0.13541
H          H       0.75000   0.55184   0.06344   0.13203
H          H       0.75000   0.91966   0.61733   0.34110
C          C       0.24999   0.60130   0.15854   0.53883
C          C       0.25001   0.44622   0.11260  -0.02352
C          C       0.25000   0.36431   0.18639  -0.08557
C          C       0.24999   0.21821   0.13905  -0.03220
C          C       0.25000   0.15437   0.01826  -0.09857
C          C       0.25000   0.23654   0.94515   0.02054
C          C       0.25000   0.38231   0.99202  -0.09579
C          C       0.25001   0.12828   0.21598   0.57433
C          C       0.25000   0.16960   0.81834   0.29836
C          C       0.75001   0.39877   0.84145   0.53895
C          C       0.75000   0.55385   0.88740  -0.02378
C          C       0.75000   0.63577   0.81362  -0.08539
C          C       0.75001   0.78188   0.86096  -0.03211
C          C       0.75000   0.84570   0.98175  -0.09835
C          C       0.75000   0.76351   0.05486   0.02020
C          C       0.75001   0.61775   0.00798  -0.09540
C          C       0.74999   0.87182   0.78405   0.57403
C          C       0.75000   0.83046   0.18167   0.29925
N          N       0.08637   0.13449   0.75176  -0.22420
N          N       0.15175   0.07782   0.64407  -0.05428
N          N       0.58637   0.86557   0.24825  -0.22454
N          N       0.65175   0.92224   0.35594  -0.05441
N          N       0.91363   0.86557   0.24825  -0.22433
N          N       0.84825   0.92225   0.35594  -0.05438
N          N       0.41363   0.13449   0.75176  -0.22415
N          N       0.34825   0.07782   0.64406  -0.05430
O          O       0.25000   0.67251   0.08891  -0.53384
O          O       0.25000   0.66629   0.26904  -0.55504
O          O       0.25000   0.18597   0.32539  -0.51255
O          O       0.25000   0.99583   0.16290  -0.57036
O          O       0.25000   0.99057   0.41098  -0.89406
O          O       0.75000   0.32756   0.91108  -0.53392
O          O       0.75000   0.33378   0.73095  -0.55507
O          O       0.75001   0.81414   0.67463  -0.51239
O          O       0.75001   0.00426   0.83714  -0.57039
O          O       0.75000   0.00953   0.58903  -0.89398

