data_crystal

_audit_creation_method 'AiiDA-DDEC plugin'

_cell_length_a         8.19630
_cell_length_b        11.23630
_cell_length_c        12.95716

_cell_angle_alpha     94.93567
_cell_angle_beta     108.48473
_cell_angle_gamma     90.27303

_symmetry_space_group_name_Hall 'P 1'
_symmetry_space_group_name_H-M  'P 1'

loop_
_symmetry_equiv_pos_as_xyz
 'x,y,z'

loop_
_atom_site_label
_atom_site_type_symbol
_atom_site_fract_x
_atom_site_fract_y
_atom_site_fract_z
_atom_site_charge
Ni         Ni      0.13905   0.52781   0.59070   0.81283
Ni         Ni      0.56019   0.47732   0.43219   0.81311
H          H       0.70658   0.30340   0.71375   0.09707
H          H       0.75556   0.21108   0.88895   0.10501
H          H       0.63464   0.30883   0.03081   0.13990
H          H       0.17129   0.35658   0.75844   0.11137
H          H       0.18464   0.13473   0.76947   0.13344
H          H       0.07655   0.09640   0.41894   0.12530
H          H       0.08011   0.31915   0.42508   0.11015
H          H       0.22900   0.71008   0.46452   0.10371
H          H       0.24161   0.93227   0.46335   0.10648
H          H       0.02279   0.95538   0.72676   0.12352
H          H       0.02863   0.73185   0.71969   0.11428
H          H       0.00933   0.69881   0.30695   0.09994
H          H       0.88521   0.78926   0.13065   0.10590
H          H       0.61969   0.69205   0.98974   0.13984
H          H       0.42699   0.64818   0.26413   0.11171
H          H       0.42841   0.87018   0.25328   0.13320
H          H       0.66820   0.90892   0.60414   0.12523
H          H       0.66627   0.68618   0.59794   0.11046
H          H       0.77543   0.29632   0.55893   0.10323
H          H       0.78952   0.07430   0.56022   0.10679
H          H       0.30754   0.04832   0.29573   0.12369
H          H       0.31989   0.27192   0.30296   0.11475
C          C       0.51240   0.44368   0.92836   0.22035
C          C       0.47006   0.49097   0.82673  -0.14055
C          C       0.54374   0.43904   0.74937  -0.06498
C          C       0.64910   0.34012   0.77385  -0.11457
C          C       0.67805   0.28973   0.87227  -0.08323
C          C       0.61120   0.34259   0.95108  -0.17925
C          C       0.34706   0.59313   0.80489   0.58729
C          C       0.52142   0.48636   0.64177   0.56769
C          C       0.15285   0.29417   0.68628   0.10066
C          C       0.15760   0.17082   0.69069  -0.17624
C          C       0.13134   0.09543   0.59431   0.09592
C          C       0.10247   0.14988   0.49675  -0.17917
C          C       0.10160   0.27366   0.49880   0.09733
C          C       0.18339   0.76865   0.52004   0.10026
C          C       0.18876   0.89223   0.51976  -0.18254
C          C       0.13011   0.96378   0.59408   0.09706
C          C       0.06964   0.90520   0.66685  -0.17931
C          C       0.06870   0.78087   0.66251   0.10897
C          C       0.59680   0.55882   0.09341   0.22091
C          C       0.65515   0.51268   0.19558  -0.13896
C          C       0.80738   0.56458   0.27264  -0.06633
C          C       0.89071   0.66226   0.24717  -0.11642
C          C       0.82241   0.71155   0.14813  -0.08470
C          C       0.67529   0.65883   0.06975  -0.17972
C          C       0.55176   0.41136   0.21776   0.58689
C          C       0.89167   0.51839   0.38082   0.56574
C          C       0.47995   0.71074   0.33641   0.09961
C          C       0.47976   0.83413   0.33208  -0.17489
C          C       0.54887   0.90967   0.42862   0.09510
C          C       0.61708   0.85535   0.52625  -0.17996
C          C       0.61459   0.73155   0.52414   0.09811
C          C       0.67439   0.23717   0.50324   0.10072
C          C       0.68023   0.11365   0.50356  -0.18132
C          C       0.54747   0.04133   0.42891   0.09621
C          C       0.41414   0.09912   0.35591  -0.17928
C          C       0.41726   0.22347   0.36030   0.10784
N          N       0.12558   0.34521   0.59191  -0.23123
N          N       0.12218   0.71330   0.58908  -0.21762
N          N       0.54645   0.65983   0.43088  -0.23094
N          N       0.54405   0.29177   0.43395  -0.21795
O          O       0.18699   0.55698   0.75523  -0.59407
O          O       0.39993   0.69792   0.83496  -0.51207
O          O       0.38124   0.53104   0.58464  -0.56200
O          O       0.64923   0.47917   0.60536  -0.52547
O          O       0.44273   0.44815   0.26779  -0.59369
O          O       0.57154   0.30643   0.18727  -0.51190
O          O       0.80785   0.47414   0.43798  -0.56182
O          O       0.05602   0.52600   0.41783  -0.52380
O          O       0.45617   0.50112   0.01121  -0.23359

