data_crystal

_audit_creation_method 'AiiDA-DDEC plugin'

_cell_length_a         9.64578
_cell_length_b        10.18950
_cell_length_c         8.75016

_cell_angle_alpha     86.74518
_cell_angle_beta     107.58306
_cell_angle_gamma     112.45696

_symmetry_space_group_name_Hall 'P 1'
_symmetry_space_group_name_H-M  'P 1'

loop_
_symmetry_equiv_pos_as_xyz
 'x,y,z'

loop_
_atom_site_label
_atom_site_type_symbol
_atom_site_fract_x
_atom_site_fract_y
_atom_site_fract_z
_atom_site_charge
Zn         Zn      0.39126   0.51700   0.82802   0.92838
Zn         Zn      0.60870   0.48300   0.17199   0.92836
Zn         Zn      0.49995   0.49999   0.50000   1.05780
H          H       0.23841   0.10084   0.40910   0.11041
H          H       0.97114   0.13726   0.70670   0.12186
H          H       0.76949   0.35030   0.08902   0.11366
H          H       0.97056   0.66834   0.78658   0.12836
H          H       0.37548   0.78002   0.31814   0.12021
H          H       0.54715   0.97891   0.79451   0.12440
H          H       0.76152   0.89915   0.59094   0.11040
H          H       0.02879   0.86273   0.29334   0.12180
H          H       0.23044   0.64966   0.91094   0.11398
H          H       0.02938   0.33164   0.21341   0.12841
H          H       0.62444   0.21998   0.68185   0.12022
H          H       0.45278   0.02109   0.20549   0.12434
C          C       0.24338   0.27364   0.63366   0.60060
C          C       0.11724   0.13256   0.56491  -0.03352
C          C       0.13376   0.05569   0.44784  -0.09103
C          C       0.98267   0.07631   0.61655  -0.09882
C          C       0.70200   0.52761   0.85418   0.60802
C          C       0.85523   0.51323   0.93193  -0.03492
C          C       0.87071   0.41732   0.05153  -0.10053
C          C       0.98492   0.59528   0.88002  -0.07110
C          C       0.41646   0.72305   0.62740   0.59030
C          C       0.45597   0.86620   0.56214  -0.02753
C          C       0.42920   0.87705   0.39589  -0.07872
C          C       0.52681   0.98960   0.66608  -0.09511
C          C       0.75654   0.72637   0.36635   0.60109
C          C       0.88268   0.86743   0.43513  -0.03351
C          C       0.86617   0.94430   0.55220  -0.09110
C          C       0.01726   0.92368   0.38349  -0.09875
C          C       0.29794   0.47236   0.14582   0.60798
C          C       0.14471   0.48675   0.06806  -0.03489
C          C       0.12923   0.58266   0.94846  -0.10075
C          C       0.01502   0.40470   0.11996  -0.07125
C          C       0.58348   0.27695   0.37259   0.59025
C          C       0.54396   0.13380   0.43785  -0.02762
C          C       0.57073   0.12295   0.60410  -0.07844
C          C       0.47312   0.01040   0.33391  -0.09498
O          O       0.36825   0.31727   0.59330  -0.57668
O          O       0.21709   0.34196   0.73494  -0.54651
O          O       0.67949   0.58264   0.72182  -0.53231
O          O       0.59415   0.48042   0.92762  -0.57010
O          O       0.36923   0.61309   0.53466  -0.58184
O          O       0.43317   0.71604   0.77968  -0.53661
O          O       0.63167   0.68272   0.40671  -0.57712
O          O       0.78282   0.65808   0.26503  -0.54654
O          O       0.32044   0.41735   0.27818  -0.53228
O          O       0.40578   0.51954   0.07237  -0.57005
O          O       0.63068   0.38692   0.46533  -0.58156
O          O       0.56681   0.28396   0.22032  -0.53666

