data_crystal

_audit_creation_method 'AiiDA-DDEC plugin'

_cell_length_a         4.08394
_cell_length_b         7.73297
_cell_length_c         8.58459

_cell_angle_alpha     120.26847
_cell_angle_beta     103.38554
_cell_angle_gamma     84.25902

_symmetry_space_group_name_Hall 'P 1'
_symmetry_space_group_name_H-M  'P 1'

loop_
_symmetry_equiv_pos_as_xyz
 'x,y,z'

loop_
_atom_site_label
_atom_site_type_symbol
_atom_site_fract_x
_atom_site_fract_y
_atom_site_fract_z
_atom_site_charge
Co         Co      0.24957   0.51798   0.42022   0.99310
Co         Co      0.01510   0.99358   0.54806   1.06804
H          H       0.14100  -0.00097   0.00491   0.10714
H          H       0.14696   0.48908   0.00246   0.10732
H          H       0.86550   0.93615   0.97044   0.09941
H          H       0.87918   0.55004   0.02355   0.09494
C          C       0.28280   0.76379   0.74748   0.59697
C          C       0.35545   0.91740   0.94163  -0.15786
C          C       0.45401   0.73540   0.25504   0.63326
C          C       0.39761   0.56587   0.06460  -0.16739
C          C       0.69686   0.20389   0.20607   0.62253
C          C       0.64886   0.00635   0.03596  -0.11651
C          C       0.58199   0.28226   0.78941   0.63111
C          C       0.62444   0.47656   0.96310  -0.12593
O          O       0.49782   0.62990   0.67560  -0.47120
O          O       0.00535   0.77201   0.64207  -0.59685
O          O       0.68101   0.86498   0.30832  -0.51784
O          O       0.26498   0.74112   0.36143  -0.61856
O          O       0.44392   0.31697   0.21307  -0.54812
O          O       0.98045   0.25199   0.31871  -0.55126
O          O       0.36745   0.16038   0.76785  -0.54759
O          O       0.77504   0.25031   0.67992  -0.53471

