data_crystal

_audit_creation_method 'AiiDA-DDEC plugin'

_cell_length_a         7.08756
_cell_length_b        15.36200
_cell_length_c        15.35446

_cell_angle_alpha     117.64611
_cell_angle_beta     98.85045
_cell_angle_gamma     98.84607

_symmetry_space_group_name_Hall 'P 1'
_symmetry_space_group_name_H-M  'P 1'

loop_
_symmetry_equiv_pos_as_xyz
 'x,y,z'

loop_
_atom_site_label
_atom_site_type_symbol
_atom_site_fract_x
_atom_site_fract_y
_atom_site_fract_z
_atom_site_charge
Mn         Mn      0.51732   0.41067   0.73778   1.05386
Mn         Mn      0.77864   0.26075   0.67184   1.05189
Mn         Mn      0.10593   0.32667   0.58769   1.05270
Mn         Mn      0.47527   0.58833   0.26055   1.05164
Mn         Mn      0.21385   0.73828   0.32637   1.05454
Mn         Mn      0.88668   0.67237   0.41058   1.05282
H          H       0.18952   0.52994   0.55242   0.13816
H          H       0.63649   0.44618   0.97644   0.13817
H          H       0.65906   0.02229   0.46879   0.13800
H          H       0.80330   0.46946   0.44621   0.13795
H          H       0.35625   0.55258   0.02184   0.13820
H          H       0.33339   0.97674   0.52949   0.13772
C          C       0.73633   0.39298   0.56353   0.62386
C          C       0.61008   0.44830   0.53353  -0.15508
C          C       0.43315   0.46542   0.56488   0.30103
C          C       0.32466   0.51656   0.52935  -0.20718
C          C       0.17197   0.43497   0.82820   0.62096
C          C       0.07576   0.46508   0.91352  -0.15202
C          C       0.86755   0.43368   0.89937   0.29848
C          C       0.79464   0.46930   0.98605  -0.20483
C          C       0.34276   0.17035   0.60572   0.62330
C          C       0.16121   0.08509   0.55051  -0.15334
C          C       0.96715   0.09927   0.53330   0.30210
C          C       0.80760   0.01265   0.48223  -0.20569
C          C       0.25644   0.60634   0.43500   0.62258
C          C       0.38272   0.55109   0.46508  -0.15258
C          C       0.55960   0.53393   0.43370   0.29921
C          C       0.66816   0.48285   0.46928  -0.20409
C          C       0.82085   0.56383   0.17014   0.62288
C          C       0.91699   0.53369   0.08478  -0.15386
C          C       0.12518   0.56513   0.09891   0.30180
C          C       0.19810   0.52947   0.01224  -0.20636
C          C       0.64973   0.82866   0.39250   0.62325
C          C       0.83123   0.91394   0.44779  -0.15386
C          C       0.02529   0.89976   0.46499   0.29968
C          C       0.18484   0.98638   0.51607  -0.20578
O          O       0.68210   0.35687   0.61959  -0.60205
O          O       0.89371   0.38207   0.53364  -0.54067
O          O       0.36459   0.43520   0.62694  -0.61250
O          O       0.06175   0.37891   0.73608  -0.60084
O          O       0.35923   0.46480   0.84717  -0.54075
O          O       0.73701   0.37150   0.80715  -0.61161
O          O       0.32466   0.26245   0.64165  -0.60217
O          O       0.51102   0.15138   0.61667  -0.54068
O          O       0.92873   0.19146   0.56334  -0.61327
O          O       0.31048   0.64228   0.37878  -0.60079
O          O       0.09914   0.61730   0.46494  -0.54122
O          O       0.62797   0.56406   0.37155  -0.61186
O          O       0.93114   0.62006   0.26224  -0.60233
O          O       0.63366   0.53389   0.15125  -0.54048
O          O       0.25575   0.62740   0.19111  -0.61360
O          O       0.66790   0.73657   0.35639  -0.60215
O          O       0.48145   0.84765   0.38163  -0.54129
O          O       0.06373   0.80757   0.43492  -0.61186

