data_crystal

_audit_creation_method 'AiiDA-DDEC plugin'

_cell_length_a         5.28186
_cell_length_b        12.64884
_cell_length_c        14.96100

_cell_angle_alpha     55.01842
_cell_angle_beta     94.13066
_cell_angle_gamma     88.18806

_symmetry_space_group_name_Hall 'P 1'
_symmetry_space_group_name_H-M  'P 1'

loop_
_symmetry_equiv_pos_as_xyz
 'x,y,z'

loop_
_atom_site_label
_atom_site_type_symbol
_atom_site_fract_x
_atom_site_fract_y
_atom_site_fract_z
_atom_site_charge
U          U       0.14922   0.74061   0.42593   2.57562
U          U       0.81515   0.27454   0.56239   2.55870
U          U       0.94045   0.97938   0.01881   2.45266
Zn         Zn      0.33620   0.80681   0.64202   1.07558
Zn         Zn      0.62394   0.21904   0.33892   1.05609
P          P       0.27423   0.48302   0.39404   1.44935
P          P       0.36591   0.02746   0.12557   1.39693
P          P       0.62828   0.97418   0.33524   1.44871
P          P       0.03628   0.33048   0.31159   1.37264
P          P       0.69226   0.53246   0.59394   1.45729
P          P       0.51386   0.95215   0.90166   1.40107
P          P       0.32124   0.03958   0.66745   1.44205
P          P       0.92364   0.69089   0.67275   1.36903
H          H       0.91040   0.53619   0.26720   0.22154
H          H       0.19972   0.53904   0.21115   0.22869
H          H       0.24628   0.11013   0.22659   0.22845
H          H       0.52167   0.17451   0.15723   0.22753
H          H       0.04739   0.48059   0.72676   0.22640
H          H       0.74909   0.48490   0.77362   0.22982
H          H       0.68117   0.89357   0.79146   0.22796
H          H       0.38226   0.82984   0.83641   0.22526
C          C       0.09995   0.48488   0.28501  -0.77159
C          C       0.42792   0.08557   0.20841  -0.77008
C          C       0.85922   0.53485   0.70282  -0.76664
C          C       0.48811   0.91669   0.80140  -0.75819
O          O       0.17834   0.12760   0.02331  -0.79432
O          O       0.62792   0.00684   0.09473  -0.85400
O          O       0.26737   0.62403   0.35902  -0.85378
O          O       0.45113   0.86655   0.40882  -0.88194
O          O       0.55251   0.42678   0.40870  -0.84086
O          O       0.84884   0.91229   0.31362  -0.85974
O          O       0.14796   0.39473   0.50211  -0.88907
O          O       0.22538   0.90006   0.18256  -0.88057
O          O       0.91557   0.25035   0.42527  -0.87276
O          O       0.26802   0.24926   0.32194  -0.73520
O          O       0.72489   0.04488   0.38399  -0.72599
O          O       0.82338   0.35812   0.22389  -0.72902
O          O       0.69401   0.84246   0.00442  -0.81307
O          O       0.24645   0.96189   0.93186  -0.85311
O          O       0.71181   0.39003   0.63140  -0.85546
O          O       0.50928   0.14387   0.59869  -0.88212
O          O       0.41301   0.58497   0.57899  -0.83776
O          O       0.09448   0.10376   0.68685  -0.84786
O          O       0.81754   0.61988   0.48551  -0.89009
O          O       0.65627   0.07619   0.86067  -0.82640
O          O       0.04989   0.76634   0.56039  -0.87012
O          O       0.68992   0.77522   0.65937  -0.73972
O          O       0.22894   0.97414   0.61280  -0.73646
O          O       0.13430   0.66685   0.76030  -0.73541

