data_crystal

_audit_creation_method 'AiiDA-DDEC plugin'

_cell_length_a         5.72332
_cell_length_b        10.55036
_cell_length_c        13.63255

_cell_angle_alpha     79.81156
_cell_angle_beta     90.50709
_cell_angle_gamma     67.25738

_symmetry_space_group_name_Hall 'P 1'
_symmetry_space_group_name_H-M  'P 1'

loop_
_symmetry_equiv_pos_as_xyz
 'x,y,z'

loop_
_atom_site_label
_atom_site_type_symbol
_atom_site_fract_x
_atom_site_fract_y
_atom_site_fract_z
_atom_site_charge
Zn         Zn      0.92976   0.61827   0.83752   1.05095
Zn         Zn      0.61918   0.06011   0.41630   1.05265
Zn         Zn      0.74150   0.10939   0.93729   1.08997
Zn         Zn      0.07025   0.38171   0.16247   1.05098
Zn         Zn      0.38082   0.93988   0.58370   1.05266
Zn         Zn      0.25851   0.89059   0.06271   1.08984
P          P       0.91487   0.86759   0.64476   1.25970
P          P       0.84744   0.77231   0.01478   1.26911
P          P       0.08514   0.13239   0.35524   1.25962
P          P       0.15257   0.22768   0.98522   1.26925
H          H       0.13757   0.03600   0.74357   0.32855
H          H       0.62632   0.61734   0.15754   0.34251
H          H       0.75319   0.11937   0.63625   0.11242
H          H       0.90080   0.75040   0.19445   0.12324
H          H       0.86244   0.96398   0.25642   0.32823
H          H       0.37369   0.38264   0.84246   0.34250
H          H       0.24682   0.88061   0.36374   0.11227
H          H       0.09921   0.24958   0.80555   0.12332
C          C       0.80393   0.02963   0.70010  -0.21103
C          C       0.55566   0.04703   0.74822   0.62831
C          C       0.94899   0.67323   0.14550  -0.21542
C          C       0.23685   0.59469   0.15545   0.60538
C          C       0.19608   0.97035   0.29989  -0.21087
C          C       0.44434   0.95295   0.25178   0.62796
C          C       0.05102   0.32675   0.85449  -0.21561
C          C       0.76316   0.40529   0.84454   0.60568
O          O       0.86159   0.75293   0.71179  -0.73506
O          O       0.73156   0.91300   0.54432  -0.79513
O          O       0.19147   0.82847   0.62056  -0.69924
O          O       0.97739   0.02910   0.77166  -0.45103
O          O       0.37348   0.03849   0.69648  -0.55858
O          O       0.52549   0.07220   0.83411  -0.47817
O          O       0.56933   0.80262   0.99048  -0.72249
O          O       0.90864   0.90444   0.01704  -0.77255
O          O       0.02459   0.67791   0.94932  -0.74381
O          O       0.83007   0.57835   0.17120  -0.46852
O          O       0.36523   0.67148   0.15056  -0.52208
O          O       0.33661   0.46257   0.16743  -0.48965
O          O       0.13842   0.24706   0.28820  -0.73485
O          O       0.26844   0.08699   0.45567  -0.79527
O          O       0.80854   0.17152   0.37943  -0.69931
O          O       0.02262   0.97088   0.22834  -0.45090
O          O       0.62653   0.96150   0.30351  -0.55822
O          O       0.47452   0.92779   0.16589  -0.47785
O          O       0.43068   0.19736   0.00952  -0.72249
O          O       0.09137   0.09554   0.98296  -0.77266
O          O       0.97542   0.32208   0.05068  -0.74404
O          O       0.16994   0.42163   0.82879  -0.46810
O          O       0.63478   0.32850   0.84944  -0.52240
O          O       0.66340   0.53741   0.83256  -0.48979

