data_crystal

_audit_creation_method 'AiiDA-DDEC plugin'

_cell_length_a         8.48901
_cell_length_b         7.76867
_cell_length_c        11.58970

_cell_angle_alpha     90.38610
_cell_angle_beta     102.85309
_cell_angle_gamma     92.02100

_symmetry_space_group_name_Hall 'P 1'
_symmetry_space_group_name_H-M  'P 1'

loop_
_symmetry_equiv_pos_as_xyz
 'x,y,z'

loop_
_atom_site_label
_atom_site_type_symbol
_atom_site_fract_x
_atom_site_fract_y
_atom_site_fract_z
_atom_site_charge
Mn         Mn      0.73256   0.75626   0.69615   1.15317
Mn         Mn      0.79319   0.87296   0.25125   1.05136
Mn         Mn      0.21987   0.26874   0.22941   1.19384
Mn         Mn      0.23944   0.26774   0.73057   1.15690
H          H       0.41066   0.59952   0.72810   0.04589
H          H      -0.00026   0.52474   0.29215   0.06303
H          H       0.21346   0.97288   0.43633   0.05147
H          H       0.54933   0.05187   0.78561   0.03990
H          H       0.65950   0.48131   0.33489   0.24228
H          H       0.91912   0.42315   0.79876   0.04611
H          H       0.05233   0.94336   0.73431   0.04315
H          H       0.46297   0.02081   0.17553   0.03984
H          H       0.92518   0.50522   0.54228   0.06161
H          H       0.85988   0.75857   0.02682   0.12750
H          H       0.38246   0.26548   0.49401   0.04395
H          H       0.25848   0.36525   0.98822   0.03976
C          C       0.50557   0.51226   0.76893   0.49684
C          C       0.98170   0.53478   0.19518   0.48998
C          C       0.09798   0.96266   0.37032   0.49301
C          C       0.46902   0.99264   0.70638   0.50521
C          C       0.51606   0.57242   0.22791   0.41510
C          C       0.00549   0.52260   0.78052   0.50343
C          C       0.96627   0.02754   0.67878   0.49842
C          C       0.51782   0.08177   0.26166   0.49789
C          C       0.80136   0.52468   0.49209   0.50647
C          C       0.80016   0.89084   0.99027   0.47300
C          C       0.27852   0.34947   0.48227   0.49855
C          C       0.23796   0.22455   0.98497   0.49153
O          O       0.69990   0.60697   0.53014  -0.47995
O          O       0.65348   0.56330   0.78431  -0.50982
O          O       0.46622   0.36302   0.79976  -0.48064
O          O       0.77384   0.45175   0.38662  -0.36046
O          O       0.89424   0.65925   0.15036  -0.40858
O          O       0.04627   0.42766   0.13959  -0.44450
O          O       0.75405   0.96970   0.07078  -0.39707
O          O       0.99209   0.85119   0.38856  -0.50652
O          O       0.07244   0.05861   0.27971  -0.55190
O          O       0.79638   0.91871   0.88448  -0.35265
O          O       0.51421   0.86018   0.65853  -0.47876
O          O       0.33299   0.05766   0.66480  -0.49222
O          O       0.21269   0.39330   0.37615  -0.49393
O          O       0.38718   0.49619   0.18048  -0.44618
O          O       0.57540   0.71899   0.21312  -0.48563
O          O       0.22684   0.40062   0.56986  -0.48086
O          O       0.15172   0.48703   0.78615  -0.49595
O          O       0.95596   0.67364   0.75429  -0.49900
O          O       0.23324   0.14120   0.89036  -0.48284
O          O       0.01282   0.17881   0.65635  -0.48838
O          O       0.82119   0.97204   0.63882  -0.47512
O          O       0.21964   0.14875   0.07976  -0.48057
O          O       0.42857   0.17584   0.31027  -0.51057
O          O       0.66373   0.05868   0.31049  -0.46706

