data_crystal

_audit_creation_method 'AiiDA-DDEC plugin'

_cell_length_a         8.06458
_cell_length_b         9.29550
_cell_length_c        19.59874

_cell_angle_alpha     82.23585
_cell_angle_beta     81.91213
_cell_angle_gamma     91.15187

_symmetry_space_group_name_Hall 'P 1'
_symmetry_space_group_name_H-M  'P 1'

loop_
_symmetry_equiv_pos_as_xyz
 'x,y,z'

loop_
_atom_site_label
_atom_site_type_symbol
_atom_site_fract_x
_atom_site_fract_y
_atom_site_fract_z
_atom_site_charge
Fe         Fe     -0.00174   0.99665  -0.00009   0.45648
Fe         Fe      0.50108   0.49666   0.49833   0.47120
H          H       0.95909   0.76083   0.89513   0.12943
H          H       0.44263   0.92049   0.79947   0.11697
H          H       0.50735   0.73911   0.60833   0.12940
H          H       0.06271   0.52144   0.71718   0.11593
H          H       0.58437   0.85002   0.00408   0.12378
H          H       0.81472   0.44096   0.01857   0.11447
H          H       0.56111   0.67826   0.34529   0.12972
H          H       0.02903   0.65998   0.36823   0.11031
H          H       0.93695   0.82938   0.15703   0.13447
H          H       0.46794   0.84400   0.13931   0.11348
H          H       0.90728   0.64037   0.50368   0.12583
H          H       0.68179   0.05115   0.48167   0.11233
H          H       0.03685   0.23344   0.10415   0.13092
H          H       0.55625   0.06997   0.20167   0.11660
H          H       0.49302   0.25103   0.39265   0.13055
H          H       0.93291   0.47384   0.28207   0.11609
H          H       0.41160   0.14324   0.99564   0.12374
H          H       0.18148   0.55235   0.98002   0.11423
H          H       0.43746   0.31655   0.65305   0.13015
H          H       0.96921   0.33140   0.63227   0.11074
H          H       0.05903   0.16301   0.84270   0.13469
H          H       0.52811   0.14976   0.86048   0.11347
H          H       0.08821   0.35191   0.49716   0.12469
H          H       0.31498   0.94159   0.51805   0.11285
C          C       0.07820   0.82017   0.88572   0.02468
C          C       0.32860   0.90359   0.83625   0.00851
C          C       0.39907   0.66536   0.62098   0.02572
C          C       0.16851   0.55307   0.67716   0.01057
C          C       0.67647   0.76781   0.01090   0.04267
C          C       0.79561   0.55576   0.01910   0.02694
C          C       0.43107   0.65753   0.36745   0.03100
C          C       0.15603   0.64899   0.37953   0.01411
C          C       0.06800   0.84803   0.13599   0.03828
C          C       0.34237   0.85514   0.12651   0.01369
C          C       0.81603   0.72295   0.49603   0.04879
C          C       0.69935   0.93561   0.48363   0.02565
C          C       0.91834   0.17315   0.11403   0.02198
C          C       0.66949   0.08777   0.16446   0.00776
C          C       0.59965   0.32648   0.37938   0.02476
C          C       0.82786   0.44138   0.32233   0.01175
C          C       0.31955   0.22539   0.98859   0.04151
C          C       0.20049   0.43746   0.97983   0.02755
C          C       0.56791   0.33624   0.63133   0.03277
C          C       0.84278   0.34289   0.62040   0.01527
C          C       0.92797   0.14465   0.86377   0.03804
C          C       0.65363   0.13829   0.87329   0.01367
C          C       0.17989   0.26957   0.50444   0.04930
C          C       0.29712   0.05706   0.51627   0.02555
N          N       0.13296   0.91560   0.92333  -0.12918
N          N       0.29065   0.96810   0.89247  -0.19674
N          N       0.19791   0.80992   0.83001   0.15179
N          N       0.17594   0.72282   0.78018  -0.19955
N          N       0.30642   0.74855   0.73023  -0.20328
N          N       0.28728   0.65999   0.68062   0.15297
N          N       0.35110   0.56761   0.58335  -0.12748
N          N       0.20628   0.49618   0.61857  -0.20653
N          N       0.83313   0.78850   0.02142  -0.16852
N          N       0.90885   0.65468   0.02662  -0.21959
N          N       0.64723   0.62239   0.00871   0.13141
N          N       0.49372   0.56658  -0.00083  -0.12971
N          N       0.37179   0.59170   0.43104  -0.13638
N          N       0.19866   0.58742   0.43913  -0.18374
N          N       0.29860   0.69382   0.33286   0.14951
N          N       0.32031   0.75493   0.26404  -0.18673
N          N       0.17278   0.75412   0.24176  -0.19322
N          N       0.19735   0.81418   0.17247   0.14739
N          N       0.13125   0.90688   0.07165  -0.12684
N          N       0.30358   0.91058   0.06523  -0.18000
N          N       0.65715   0.70159   0.48862  -0.15834
N          N       0.58331   0.83553   0.48033  -0.21472
N          N       0.84820   0.86935   0.49315   0.13496
N          N       0.00423   0.92693   0.49855  -0.13551
N          N       0.86351   0.07737   0.07661  -0.12835
N          N       0.70675   0.02366   0.10807  -0.19665
N          N       0.79968   0.18242   0.17020   0.15279
N          N       0.82183   0.26997   0.21985  -0.20015
N          N       0.69289   0.24259   0.27043  -0.20454
N          N       0.71118   0.33226   0.31963   0.15358
N          N       0.64580   0.42636   0.41635  -0.12207
N          N       0.78923   0.49933   0.38058  -0.20773
N          N       0.16279   0.20445   0.97823  -0.16685
N          N       0.08711   0.33828   0.97269  -0.21980
N          N       0.34891   0.37098   0.99028   0.13182
N          N       0.50248   0.42692  -0.00030  -0.13109
N          N       0.62897   0.40055   0.56769  -0.13790
N          N       0.80197   0.40374   0.56035  -0.18640
N          N       0.69912   0.29963   0.66664   0.14944
N          N       0.67604   0.23917   0.73562  -0.18958
N          N       0.82356   0.23875   0.75801  -0.19263
N          N       0.79867   0.17891   0.82731   0.14752
N          N       0.86467   0.08591   0.92812  -0.12594
N          N       0.69235   0.08267   0.93457  -0.18174
N          N       0.33881   0.29115   0.51165  -0.16087
N          N       0.41305   0.15729   0.51954  -0.21595
N          N       0.14799   0.12314   0.50711   0.13364
N          N       0.99197   0.06548   0.50178  -0.13556

