data_crystal

_audit_creation_method 'AiiDA-DDEC plugin'

_cell_length_a         8.49417
_cell_length_b         9.10450
_cell_length_c        10.58881

_cell_angle_alpha     92.75528
_cell_angle_beta     113.68656
_cell_angle_gamma     89.71281

_symmetry_space_group_name_Hall 'P 1'
_symmetry_space_group_name_H-M  'P 1'

loop_
_symmetry_equiv_pos_as_xyz
 'x,y,z'

loop_
_atom_site_label
_atom_site_type_symbol
_atom_site_fract_x
_atom_site_fract_y
_atom_site_fract_z
_atom_site_charge
Mn         Mn      0.89706   0.25043   0.00015   1.17252
Mn         Mn      0.10295   0.74956  -0.00015   1.17259
P          P       0.17943   0.49127   0.20750   1.28852
P          P       0.97205   0.00806   0.79240   1.28848
P          P       0.82058   0.50872   0.79250   1.28866
P          P       0.02795   0.99193   0.20760   1.28852
H          H       0.01254   0.67052   0.21599   0.39892
H          H       0.20367   0.29294   0.56876   0.14290
H          H       0.10007   0.31298   0.38769   0.13280
H          H       0.09736   0.45841   0.50294   0.13569
H          H       0.52104   0.59825   0.29389   0.12459
H          H       0.79655   0.83033   0.78353   0.40074
H          H       0.63336   0.20798   0.43179   0.14158
H          H       0.71103   0.18718   0.61271   0.13275
H          H       0.59397   0.04231   0.49693   0.13576
H          H       0.22779   0.90040   0.70576   0.12560
H          H       0.98747   0.32947   0.78401   0.39900
H          H       0.79633   0.70705   0.43125   0.14287
H          H       0.89994   0.68701   0.61231   0.13274
H          H       0.90264   0.54158   0.49706   0.13590
H          H       0.47897   0.40175   0.70611   0.12460
H          H       0.20346   0.16966   0.21647   0.40059
H          H       0.36664   0.79201   0.56821   0.14160
H          H       0.28897   0.81281   0.38730   0.13288
H          H       0.40603   0.95768   0.50307   0.13569
H          H       0.77222   0.09959   0.29424   0.12559
C          C       0.17798   0.37004   0.48650  -0.42817
C          C       0.34167   0.43432   0.48947   0.18549
C          C       0.35763   0.49148   0.37320  -0.26328
C          C       0.51324   0.55514   0.38530  -0.12565
C          C       0.69046   0.13047   0.51373  -0.42711
C          C       0.85172   0.06594   0.51065   0.18574
C          C       0.98432   0.00804   0.62672  -0.26410
C          C       0.12830   0.94410   0.61451  -0.12604
C          C       0.82203   0.62996   0.51350  -0.42832
C          C       0.65833   0.56567   0.51053   0.18549
C          C       0.64238   0.50851   0.62680  -0.26333
C          C       0.48676   0.44485   0.61471  -0.12565
C          C       0.30954   0.86953   0.48627  -0.42712
C          C       0.14829   0.93406   0.48936   0.18580
C          C       0.01568   0.99194   0.37329  -0.26420
C          C       0.87170   0.05590   0.38549  -0.12596
O          O       0.12575   0.33121   0.15522  -0.77035
O          O       0.22920   0.58246   0.11104  -0.76252
O          O       0.02015   0.56211   0.23156  -0.64497
O          O       0.97108   0.16815   0.84551  -0.77046
O          O       0.11827   0.91533   0.88818  -0.76297
O          O       0.78863   0.93880   0.76815  -0.64650
O          O       0.87426   0.66879   0.84478  -0.77061
O          O       0.77080   0.41754   0.88896  -0.76253
O          O       0.97986   0.43788   0.76845  -0.64498
O          O       0.02892   0.83185   0.15449  -0.77040
O          O       0.88174   0.08466   0.11182  -0.76300
O          O       0.21137   0.06119   0.23186  -0.64637

