data_crystal

_audit_creation_method 'AiiDA-DDEC plugin'

_cell_length_a         7.54566
_cell_length_b        10.93968
_cell_length_c        12.49911

_cell_angle_alpha     107.46600
_cell_angle_beta     98.60535
_cell_angle_gamma     102.71351

_symmetry_space_group_name_Hall 'P 1'
_symmetry_space_group_name_H-M  'P 1'

loop_
_symmetry_equiv_pos_as_xyz
 'x,y,z'

loop_
_atom_site_label
_atom_site_type_symbol
_atom_site_fract_x
_atom_site_fract_y
_atom_site_fract_z
_atom_site_charge
Co         Co      0.84817   0.53070   0.41518   1.05493
Co         Co      0.48966   0.35766   0.49453   1.01494
Co         Co      0.15171   0.46920   0.58486   1.05498
Co         Co      0.51025   0.64228   0.50548   1.01483
H          H       0.77774   0.55360   0.61311   0.40264
H          H       0.67472   0.01099   0.45811   0.13771
H          H       0.00778   0.80565   0.25913   0.14935
H          H       0.04939   0.21614   0.29749   0.13273
H          H       0.41577   0.76878   0.93596   0.14264
H          H       0.81725   0.66786   0.87143   0.13036
H          H       0.83871   0.84571   0.05558   0.14453
H          H       0.22214   0.44635   0.38696   0.40272
H          H       0.32507   0.98885   0.54181   0.13781
H          H       0.99231   0.19431   0.74099   0.14917
H          H       0.95058   0.78379   0.70258   0.13265
H          H       0.58418   0.23118   0.06407   0.14259
H          H       0.18271   0.33197   0.12875   0.13042
H          H       0.16131   0.15415   0.94460   0.14457
C          C       0.85855   0.12780   0.38519  -0.01237
C          C       0.77859   0.01174   0.40658  -0.10856
C          C       0.83664   0.89742   0.36320  -0.01127
C          C       0.96559   0.89580   0.29310  -0.19025
C          C       0.03513   0.00987   0.26771   0.25797
C          C       0.98942   0.12769   0.31669  -0.18981
C          C       0.79468   0.24907   0.42726   0.62294
C          C       0.76585   0.77533   0.39135   0.59633
C          C       0.13988   0.91092   0.09911   0.23235
C          C       0.30156   0.88625   0.06328  -0.04342
C          C       0.28925   0.78431   0.96177  -0.11039
C          C       0.11501   0.70604   0.89125  -0.05259
C          C       0.95330   0.72859   0.92668  -0.04157
C          C       0.96483   0.82882   0.02957  -0.21033
C          C       0.10545   0.60749   0.77727   0.56527
C          C       0.14134   0.87209   0.61482  -0.01259
C          C       0.22128   0.98814   0.59340  -0.10868
C          C       0.16330   0.10249   0.63682  -0.01109
C          C       0.03444   0.10414   0.70698  -0.19014
C          C       0.96488   0.99007   0.73237   0.25763
C          C       0.01053   0.87223   0.68336  -0.18922
C          C       0.20520   0.75082   0.57275   0.62256
C          C       0.23409   0.22457   0.60866   0.59607
C          C       0.86012   0.08901   0.90099   0.23261
C          C       0.69843   0.11368   0.93678  -0.04356
C          C       0.71071   0.21564   0.03827  -0.11042
C          C       0.88494   0.29388   0.10883  -0.05287
C          C       0.04666   0.27129   0.07346  -0.04154
C          C       0.03516   0.17106   0.97057  -0.21044
C          C       0.89444   0.39243   0.22279   0.56595
N          N       0.48827   0.96818   0.12974   0.53503
N          N       0.51171   0.03177   0.87028   0.53475
O          O       0.91255   0.36518   0.45413  -0.62804
O          O       0.62367   0.23051   0.42963  -0.50893
O          O       0.62718   0.76983   0.43938  -0.55938
O          O       0.84978   0.68527   0.36583  -0.56390
O          O       0.51107   0.08872   0.18063  -0.31002
O          O       0.61520   0.91205   0.12898  -0.35414
O          O       0.25954   0.60448   0.74540  -0.53770
O          O       0.94898   0.53169   0.71127  -0.55792
O          O       0.16326   0.01547   0.19843  -0.19161
O          O       0.68036   0.53741   0.54311  -0.93771
O          O       0.08733   0.63471   0.54591  -0.62768
O          O       0.37620   0.76938   0.57036  -0.50869
O          O       0.37270   0.23004   0.56058  -0.55910
O          O       0.15023   0.31467   0.63423  -0.56398
O          O       0.48892   0.91123   0.81934  -0.30977
O          O       0.38477   0.08789   0.87107  -0.35402
O          O       0.74033   0.39546   0.25462  -0.53802
O          O       0.05089   0.46823   0.28883  -0.55815
O          O       0.83676   0.98447   0.80165  -0.19149
O          O       0.31953   0.46253   0.45695  -0.93766

