data_crystal

_audit_creation_method 'AiiDA-DDEC plugin'

_cell_length_a         9.53472
_cell_length_b         9.86605
_cell_length_c        12.81554

_cell_angle_alpha     62.96533
_cell_angle_beta     55.60011
_cell_angle_gamma     52.04230

_symmetry_space_group_name_Hall 'P 1'
_symmetry_space_group_name_H-M  'P 1'

loop_
_symmetry_equiv_pos_as_xyz
 'x,y,z'

loop_
_atom_site_label
_atom_site_type_symbol
_atom_site_fract_x
_atom_site_fract_y
_atom_site_fract_z
_atom_site_charge
Cd         Cd      0.96220   0.34496   0.19386   1.12828
Cd         Cd      0.02935   0.64786   0.80328   1.12377
Cd         Cd      0.97353   0.02511   0.51743   1.13315
H          H       0.01571   0.27874   0.59800   0.15505
H          H       0.26886   0.23378   0.66239   0.16606
H          H       0.28944   0.80477   0.84551   0.15838
H          H       0.35316   0.96334   0.92754   0.17622
H          H       0.97790   0.74306   0.39341   0.15438
H          H       0.75679   0.75239   0.32341   0.16502
H          H       0.68576   0.23631   0.16130   0.16136
H          H       0.62402   0.05969   0.09532   0.17117
C          C       0.14983   0.94683   0.20856   0.53487
C          C       0.05396   0.64089   0.05689   0.53172
C          C       0.11915   0.74712   0.04856   0.14325
C          C       0.18752   0.27807   0.31542   0.53016
C          C       0.25342   0.25743   0.40490   0.14316
C          C       0.64024   0.20469   0.42643   0.54416
C          C       0.46134   0.21207   0.45987   0.10718
C          C       0.15974   0.26400   0.53521  -0.14609
C          C       0.29497   0.23330   0.56917  -0.15361
C          C       0.16732   0.87486   0.11894   0.14858
C          C       0.23397   0.81780   0.94010  -0.15106
C          C       0.26747   0.89816   0.98530  -0.13373
C          C       0.84684   0.04019   0.81699   0.54210
C          C       0.96304   0.36433   0.92462   0.53214
C          C       0.88934   0.24666   0.95900   0.13475
C          C       0.79566   0.74230   0.67900   0.52831
C          C       0.74584   0.74270   0.58956   0.14367
C          C       0.36632   0.78062   0.56894   0.58562
C          C       0.55646   0.75537   0.53334   0.13704
C          C       0.84358   0.73683   0.45846  -0.16557
C          C       0.72252   0.74796   0.42190  -0.15741
C          C       0.83708   0.10807   0.90439   0.14327
C          C       0.75561   0.20121   0.06973  -0.14852
C          C       0.72405   0.11041   0.03516  -0.13377
O          O       0.11900   0.88051   0.32401  -0.50488
O          O       0.17912   0.07899   0.14536  -0.54509
O          O       0.93360   0.60392   0.16786  -0.53257
O          O       0.73411   0.24429   0.30680  -0.56226
O          O       0.67627   0.17271   0.52012  -0.54536
O          O       0.43419   0.23005   0.35683  -0.09480
O          O       0.07875   0.78033   0.15801  -0.08540
O          O       0.03424   0.26057   0.36822  -0.61228
O          O       0.13609   0.58779   0.95195  -0.54205
O          O       0.27744   0.31458   0.19817  -0.48017
O          O       0.86823   0.12363   0.70244  -0.51931
O          O       0.82591   0.90776   0.86950  -0.52543
O          O       0.05865   0.39241   0.80542  -0.50612
O          O       0.31762   0.67650   0.65910  -0.51312
O          O       0.26501   0.91639   0.51691  -0.51006
O          O       0.57474   0.74871   0.63757  -0.10284
O          O       0.93862   0.19162   0.85653  -0.08379
O          O       0.94203   0.77011   0.63014  -0.62884
O          O       0.91306   0.43809   0.00790  -0.56648
O          O       0.70935   0.70312   0.79643  -0.47220

