data_crystal

_audit_creation_method 'AiiDA-DDEC plugin'

_cell_length_a         4.16643
_cell_length_b         6.85211
_cell_length_c        10.27043

_cell_angle_alpha     108.03655
_cell_angle_beta     101.68735
_cell_angle_gamma     90.03717

_symmetry_space_group_name_Hall 'P 1'
_symmetry_space_group_name_H-M  'P 1'

loop_
_symmetry_equiv_pos_as_xyz
 'x,y,z'

loop_
_atom_site_label
_atom_site_type_symbol
_atom_site_fract_x
_atom_site_fract_y
_atom_site_fract_z
_atom_site_charge
Co         Co      0.50771  -0.00138   0.50335   1.07228
Co         Co      0.00772   0.50228   0.50209   1.07248
H          H       0.56521   0.08609   0.11195   0.09126
H          H       0.84915   0.12009   0.13137   0.07822
H          H       0.45523   0.41498   0.89380   0.09073
H          H       0.71961   0.38096   0.87422   0.07911
H          H       0.45147   0.91479   0.89357   0.09109
H          H       0.16783   0.88103   0.87462   0.07829
H          H       0.55964   0.58631   0.11188   0.09143
H          H       0.29506   0.62013   0.13099   0.07844
C          C       0.39880   0.26705   0.30313   0.64462
C          C       0.34282   0.13474   0.15547  -0.18940
C          C       0.05051   0.06577   0.07460  -0.00901
C          C       0.09789   0.23404   0.70252   0.64382
C          C       0.18930   0.36632   0.85020  -0.18859
C          C       0.97777   0.43529   0.93100  -0.01068
C          C       0.61931   0.73545   0.70234   0.64548
C          C       0.67421   0.86637   0.85024  -0.18867
C          C       0.96632   0.93512   0.93136  -0.00996
C          C       0.91852   0.76593   0.30310   0.64637
C          C       0.82570   0.63484   0.15524  -0.19043
C          C       0.03682   0.56602   0.07422  -0.00886
O          O       0.65919   0.24630   0.38831  -0.60442
O          O       0.17896   0.39194   0.33285  -0.54644
O          O       0.27382   0.25491   0.61756  -0.60427
O          O       0.84797   0.10915   0.67269  -0.54588
O          O       0.35964   0.75739   0.61699  -0.60866
O          O       0.83896   0.61072   0.67216  -0.54436
O          O       0.74394   0.74392   0.38838  -0.60873
O          O       0.16837   0.89084   0.33332  -0.54526

