data_crystal

_audit_creation_method 'AiiDA-DDEC plugin'

_cell_length_a         5.30764
_cell_length_b         5.28029
_cell_length_c        13.98708

_cell_angle_alpha     90.11600
_cell_angle_beta     89.94850
_cell_angle_gamma     89.97985

_symmetry_space_group_name_Hall 'P 1'
_symmetry_space_group_name_H-M  'P 1'

loop_
_symmetry_equiv_pos_as_xyz
 'x,y,z'

loop_
_atom_site_label
_atom_site_type_symbol
_atom_site_fract_x
_atom_site_fract_y
_atom_site_fract_z
_atom_site_charge
Cu         Cu      0.22933   0.71046   0.87939   1.02363
Cu         Cu      0.79643   0.27746   0.37940   1.02393
Cu         Cu      0.29791   0.20835   0.12978   1.02314
Cu         Cu      0.72960   0.77922   0.62956   1.02366
H          H       0.65716   0.36597   0.86465   0.17339
H          H       0.88466   0.14334   0.89576   0.17433
H          H       0.36440   0.62113   0.36446   0.17463
H          H       0.14243   0.84916   0.39627   0.17405
H          H       0.64430   0.64215   0.11388   0.17441
H          H       0.87039   0.86541   0.14600   0.17374
H          H       0.38293   0.34878   0.61277   0.17453
H          H       0.15936   0.12221   0.64477   0.17368
C          C       0.62420   0.00971   0.79207   0.67678
C          C       0.68152   0.16241   0.88032  -0.45482
C          C       0.53030   0.10328   0.96837   0.67783
C          C       0.40286   0.97680   0.29194   0.67836
C          C       0.34472   0.82535   0.38013  -0.45607
C          C       0.49714   0.88347   0.46805   0.67816
C          C      -0.00129   0.60355   0.04150   0.67885
C          C       0.84710   0.66195   0.12969  -0.45587
C          C       0.90353   0.50889   0.21758   0.67830
C          C       0.02773   0.38392   0.54124   0.67757
C          C       0.18031   0.32620   0.62902  -0.45508
C          C       0.12320   0.47926   0.71712   0.67764
O          O       0.51065   0.79599   0.79529  -0.60761
O          O       0.31750   0.98982   0.96468  -0.60804
O          O       0.70910   0.08969   0.71234  -0.52706
O          O       0.60898   0.18842   0.04844  -0.52776
O          O       0.51626   0.19046   0.29530  -0.60791
O          O       0.70987  -0.00291   0.46423  -0.60829
O          O       0.31751   0.89671   0.21209  -0.52879
O          O       0.41818   0.79879   0.54810  -0.52862
O          O       0.21077   0.48863   0.04478  -0.60738
O          O       0.01781   0.29549   0.21423  -0.60716
O          O       0.91983   0.68995   0.96178  -0.52946
O          O       0.81662   0.58816   0.29748  -0.52884
O          O       0.81470   0.49701   0.54508  -0.60815
O          O       0.01042   0.69336   0.71370  -0.60708
O          O       0.10669   0.29860   0.46115  -0.52821
O          O       0.20837   0.39957   0.79700  -0.52842

