data_crystal

_audit_creation_method 'AiiDA-DDEC plugin'

_cell_length_a         9.13699
_cell_length_b        10.12768
_cell_length_c        11.26607

_cell_angle_alpha     132.77096
_cell_angle_beta     96.52576
_cell_angle_gamma     102.71205

_symmetry_space_group_name_Hall 'P 1'
_symmetry_space_group_name_H-M  'P 1'

loop_
_symmetry_equiv_pos_as_xyz
 'x,y,z'

loop_
_atom_site_label
_atom_site_type_symbol
_atom_site_fract_x
_atom_site_fract_y
_atom_site_fract_z
_atom_site_charge
Zn         Zn      0.29618   0.34462   0.32664   0.75118
Zn         Zn      0.70183   0.65319   0.67204   0.75112
Zn         Zn     -0.00063   0.49947   0.49949   0.88125
H          H       0.88422   0.58794   0.22268   0.10167
H          H       0.27192   0.06787   0.48655   0.12003
H          H       0.79675   0.04677   0.37911   0.11942
H          H       0.21016   0.36768   0.96084   0.11485
H          H       0.23558   0.78489   0.91017   0.14083
H          H       0.56044   0.83673   0.98221   0.14222
H          H       0.11531   0.41145   0.77667   0.10160
H          H       0.72591   0.93080   0.51263   0.12044
H          H       0.20115   0.95206   0.62017   0.11997
H          H       0.78925   0.63146   0.03836   0.11432
H          H       0.76331   0.21681   0.08930   0.14130
H          H       0.43833   0.16436   0.01737   0.14150
C          C       0.93326   0.54865   0.12415  -0.10074
C          C       0.15326   0.03769   0.49350  -0.09552
C          C       0.08175   0.14012   0.35244   0.58142
C          C       0.88349   0.02350   0.43080  -0.08479
C          C       0.11887   0.42615   0.97741  -0.09710
C          C       0.30543   0.73325   0.82730  -0.03072
C          C       0.03776   0.06184   0.42379  -0.02825
C          C       0.10941   0.45188   0.21469   0.58498
C          C       0.05281   0.47511   0.10248  -0.03413
C          C       0.46557   0.75871   0.86300  -0.04485
C          C       0.06625   0.45070   0.87518  -0.09892
C          C       0.84474   0.96110   0.50589  -0.09712
C          C       0.91608   0.85836   0.64662   0.58310
C          C       0.11445   0.97532   0.56858  -0.08597
C          C       0.88063   0.57311   0.02186  -0.09541
C          C       0.69334   0.26742   0.17212  -0.03153
C          C       0.96007   0.93680   0.57540  -0.02668
C          C       0.88962   0.54696   0.78434   0.58505
C          C       0.94656   0.52405   0.89671  -0.03542
C          C       0.53308   0.24151   0.13639  -0.04421
N          N       0.35433   0.58403   0.58913  -0.06691
N          N       0.24016   0.62392   0.65685  -0.14153
N          N       0.49232   0.66433   0.71296  -0.15757
N          N       0.64400   0.41393   0.40952  -0.06864
N          N       0.75856   0.37540   0.34213  -0.14082
N          N       0.50601   0.33434   0.28597  -0.15725
O          O       0.19983   0.35542   0.17182  -0.53136
O          O       0.21534   0.14457   0.32488  -0.53693
O          O       0.06708   0.52930   0.34399  -0.56668
O          O       0.99221   0.20486   0.32786  -0.57964
O          O       0.79906   0.64323   0.82717  -0.53156
O          O       0.78241   0.85350   0.67398  -0.53872
O          O       0.93190   0.46951   0.65500  -0.56639
O          O       0.00583   0.79384   0.67136  -0.58090

