data_crystal

_audit_creation_method 'AiiDA-DDEC plugin'

_cell_length_a         7.29539
_cell_length_b        12.98595
_cell_length_c        12.98592

_cell_angle_alpha     88.08311
_cell_angle_beta     84.73018
_cell_angle_gamma     84.73019

_symmetry_space_group_name_Hall 'P 1'
_symmetry_space_group_name_H-M  'P 1'

loop_
_symmetry_equiv_pos_as_xyz
 'x,y,z'

loop_
_atom_site_label
_atom_site_type_symbol
_atom_site_fract_x
_atom_site_fract_y
_atom_site_fract_z
_atom_site_charge
Zn         Zn      0.28461   0.61115   0.78512   0.83757
Zn         Zn      0.71539   0.21489   0.38885   0.83761
Zn         Zn      0.71539   0.38885   0.21489   0.83763
Zn         Zn      0.28461   0.78512   0.61115   0.83755
Zn         Zn      0.50001   0.15595   0.84406   0.66029
Zn         Zn      0.50001   0.84405   0.15595   0.66031
Zn         Zn      0.00000   0.17907   0.82093   0.67510
Zn         Zn      0.00000   0.82093   0.17907   0.67505
H          H       0.90759   0.50699   0.72121   0.31747
H          H       0.84309   0.38602   0.74850   0.30084
H          H       0.07072   0.27944   0.13968   0.31289
H          H       0.15750   0.20865   0.03602   0.31064
H          H       0.52550   0.41076   0.82306   0.10869
H          H       0.44665   0.30709   0.05231   0.11406
H          H       0.09241   0.27879   0.49302   0.31745
H          H       0.15691   0.25150   0.61399   0.30100
H          H       0.92930   0.86032   0.72056   0.31278
H          H       0.84253   0.96398   0.79135   0.31088
H          H       0.47450   0.17695   0.58924   0.10862
H          H       0.55337   0.94769   0.69293   0.11398
H          H       0.09242   0.49302   0.27879   0.31745
H          H       0.15691   0.61399   0.25150   0.30097
H          H       0.92930   0.72056   0.86032   0.31275
H          H       0.84253   0.79135   0.96398   0.31090
H          H       0.47450   0.58924   0.17695   0.10864
H          H       0.55337   0.69293   0.94769   0.11396
H          H       0.90759   0.72121   0.50699   0.31747
H          H       0.84309   0.74850   0.38602   0.30084
H          H       0.07072   0.13968   0.27944   0.31290
H          H       0.15750   0.03602   0.20865   0.31062
H          H       0.52550   0.82305   0.41076   0.10868
H          H       0.44665   0.05231   0.30709   0.11410
H          H       0.03033   0.66755   0.66755   0.36526
H          H       0.96967   0.33246   0.33246   0.36530
C          C       0.38760   0.39027   0.81275   0.14758
C          C       0.10043   0.40320   0.78341   0.51410
C          C       0.59188   0.28578   0.03013   0.15361
C          C       0.88821   0.26307   0.03448   0.51913
C          C       0.61240   0.18726   0.60974   0.14757
C          C       0.89958   0.21659   0.59680   0.51408
C          C       0.40814   0.96987   0.71423   0.15364
C          C       0.11181   0.96551   0.73694   0.51881
C          C       0.61240   0.60973   0.18726   0.14758
C          C       0.89958   0.59680   0.21659   0.51412
C          C       0.40814   0.71424   0.96987   0.15376
C          C       0.11181   0.73694   0.96551   0.51894
C          C       0.38760   0.81275   0.39027   0.14753
C          C       0.10043   0.78341   0.40320   0.51404
C          C       0.59188   0.03013   0.28578   0.15351
C          C       0.88821   0.03448   0.26307   0.51901
C          C       0.40589   0.02564   0.02564   0.47669
C          C       0.59425   0.97436   0.97436   0.47701
S          S       0.66332   0.67902   0.67902   1.37830
S          S       0.33668   0.32098   0.32098   1.37837
N          N       0.33691   0.29510   0.81986  -0.19775
N          N       0.15352   0.30192   0.79924  -0.32861
N          N       0.24562   0.46118   0.79092  -0.42017
N          N       0.92470   0.44119   0.76689  -0.64018
N          N       0.65476   0.23421   0.94610  -0.21290
N          N       0.84542   0.21821   0.94860  -0.31056
N          N       0.73089   0.30692   0.08727  -0.43099
N          N       0.06235   0.26768   0.06282  -0.65562
N          N       0.66310   0.18014   0.70490  -0.19771
N          N       0.84649   0.20075   0.69808  -0.32836
N          N       0.75439   0.20908   0.53882  -0.42038
N          N       0.07530   0.23311   0.55882  -0.64033
N          N       0.34526   0.05390   0.76581  -0.21282
N          N       0.15460   0.05140   0.78180  -0.31035
N          N       0.26913   0.91274   0.69308  -0.43090
N          N       0.93767   0.93718   0.73232  -0.65584
N          N       0.66310   0.70490   0.18014  -0.19775
N          N       0.84649   0.69808   0.20075  -0.32836
N          N       0.75439   0.53882   0.20908  -0.42035
N          N       0.07531   0.55881   0.23311  -0.64034
N          N       0.34526   0.76581   0.05390  -0.21282
N          N       0.15460   0.78180   0.05140  -0.31039
N          N       0.26913   0.69308   0.91274  -0.43098
N          N       0.93767   0.73232   0.93718  -0.65586
N          N       0.33691   0.81986   0.29510  -0.19774
N          N       0.15352   0.79924   0.30192  -0.32853
N          N       0.24562   0.79092   0.46118  -0.42016
N          N       0.92470   0.76689   0.44119  -0.64016
N          N       0.65476   0.94609   0.23421  -0.21291
N          N       0.84542   0.94860   0.21820  -0.31054
N          N       0.73089   0.08727   0.30692  -0.43092
N          N       0.06235   0.06283   0.26768  -0.65558
O          O       0.55351   0.59475   0.73249  -0.66622
O          O       0.33593   0.10711   0.98245  -0.49337
O          O       0.44650   0.26752   0.40526  -0.66615
O          O       0.66421   0.01756   0.89290  -0.49375
O          O       0.44650   0.40526   0.26752  -0.66615
O          O       0.66421   0.89290   0.01756  -0.49372
O          O       0.55351   0.73249   0.59475  -0.66623
O          O       0.33594   0.98245   0.10710  -0.49341
O          O       0.83609   0.62508   0.62508  -0.63523
O          O       0.70462   0.75444   0.75444  -0.63491
O          O       0.12644   0.70047   0.70047  -0.84567
O          O       0.16391   0.37493   0.37493  -0.63504
O          O       0.29538   0.24557   0.24557  -0.63521
O          O       0.87357   0.29953   0.29953  -0.84573

