data_crystal

_audit_creation_method 'AiiDA-DDEC plugin'

_cell_length_a         6.50269
_cell_length_b        11.38594
_cell_length_c        17.97298

_cell_angle_alpha     90.34720
_cell_angle_beta     95.03656
_cell_angle_gamma     91.55928

_symmetry_space_group_name_Hall 'P 1'
_symmetry_space_group_name_H-M  'P 1'

loop_
_symmetry_equiv_pos_as_xyz
 'x,y,z'

loop_
_atom_site_label
_atom_site_type_symbol
_atom_site_fract_x
_atom_site_fract_y
_atom_site_fract_z
_atom_site_charge
Ga         Ga      0.46478   0.01084   0.49332   1.35104
Ga         Ga      0.53071   0.51604  -0.00001   1.35031
Ga         Ga      0.96328   0.99286   0.49372   1.34994
Ga         Ga      0.02724   0.49318   0.00025   1.34981
H          H       0.50712   0.74076   0.35598   0.13358
H          H       0.56590   0.64137   0.23456   0.12283
H          H       0.47234   0.23967   0.14048   0.13293
H          H       0.42382   0.13388   0.26046   0.12331
H          H       0.02907   0.11771   0.72455   0.12492
H          H       0.02200   0.21956   0.84898   0.13621
H          H       0.95935   0.61344   0.77108   0.12536
H          H       0.95550   0.71890   0.64834   0.13593
H          H       0.46733   0.28489   0.64500   0.13571
H          H       0.46083   0.38735   0.76932   0.12535
H          H       0.53778   0.78758   0.84478   0.13455
H          H       0.53449   0.89234   0.72177   0.12766
H          H       0.92228   0.86164   0.25957   0.12305
H          H       0.98105   0.76244   0.13807   0.13338
H          H       0.06690   0.37235   0.23284   0.12290
H          H       0.01809   0.26681   0.35284   0.13339
C          C       0.39316   0.74405   0.30801  -0.08456
C          C       0.42662   0.69004   0.24051  -0.09229
C          C       0.59044   0.24445   0.18725  -0.08559
C          C       0.56294   0.18654   0.25394  -0.09132
C          C       0.90608   0.17676   0.73504  -0.08791
C          C       0.90155   0.23235   0.80410  -0.09167
C          C       0.08380   0.67462   0.75969  -0.08959
C          C       0.08197   0.73246   0.69157  -0.09193
C          C       0.58794   0.27226   0.68988  -0.09023
C          C       0.58365   0.32813   0.75889  -0.08995
C          C       0.41145   0.77392   0.80155  -0.08887
C          C       0.40988   0.83142   0.73332  -0.09288
C          C       0.06146   0.81294   0.25357  -0.09227
C          C       0.09493   0.75894   0.18605  -0.08507
C          C       0.92758   0.31990   0.23940  -0.09132
C          C       0.89997   0.26213   0.30609  -0.08640
C          C       0.18121   0.86578   0.38662   0.58264
C          C       0.21093   0.80537   0.31465  -0.02970
C          C       0.27756   0.69804   0.17932  -0.03038
C          C       0.30913   0.63949   0.10699   0.58149
C          C       0.79874   0.37347   0.10851   0.58631
C          C       0.77260   0.31092   0.17985  -0.03050
C          C       0.71781   0.19568   0.31351  -0.02922
C          C       0.69205   0.13299   0.38494   0.58423
C          C       0.74833   0.13315   0.60464   0.57795
C          C       0.74891   0.19658   0.67793  -0.01812
C          C       0.74130   0.30860   0.81589  -0.01733
C          C       0.74481   0.37323   0.88888   0.57466
C          C       0.25686   0.62954   0.88683   0.57582
C          C       0.24909   0.69503   0.81458  -0.02041
C          C       0.24477   0.81096   0.67841  -0.01740
C          C       0.23927   0.87577   0.60597   0.57793
O          O       0.33054   0.86342   0.43801  -0.49795
O          O       0.48203   0.59137   0.10004  -0.51887
O          O       0.64493   0.37226   0.05899  -0.50646
O          O       0.51842   0.08088   0.39251  -0.52075
O          O       0.89796   0.06484   0.59737  -0.47127
O          O       0.89370   0.35416   0.93778  -0.49665
O          O       0.10910   0.55509   0.89399  -0.44672
O          O       0.08340   0.85762   0.55900  -0.49151
O          O       0.59835   0.15066   0.55582  -0.49536
O          O       0.59900   0.44447   0.89573  -0.45922
O          O       0.40937   0.65114   0.93461  -0.48971
O          O       0.39268   0.94557   0.59764  -0.46714
O          O       0.01018   0.91578   0.39329  -0.51785
O          O       0.16052   0.64138   0.05533  -0.50036
O          O       0.97414   0.42358   0.10058  -0.52568
O          O       0.84517   0.13649   0.43477  -0.49856
O          O       0.21102   0.08311   0.49933  -0.64468
O          O       0.79195   0.58585   0.99068  -0.65318
O          O       0.70312   0.92046   0.50012  -0.64844
O          O       0.28322   0.42468   0.99184  -0.63790

