data_crystal

_audit_creation_method 'AiiDA-DDEC plugin'

_cell_length_a        12.54525
_cell_length_b         7.38871
_cell_length_c        10.00623

_cell_angle_alpha     120.06388
_cell_angle_beta     108.04113
_cell_angle_gamma     107.06694

_symmetry_space_group_name_Hall 'P 1'
_symmetry_space_group_name_H-M  'P 1'

loop_
_symmetry_equiv_pos_as_xyz
 'x,y,z'

loop_
_atom_site_label
_atom_site_type_symbol
_atom_site_fract_x
_atom_site_fract_y
_atom_site_fract_z
_atom_site_charge
Cu         Cu      0.99345   0.53625   0.28366   0.24767
Cu         Cu      0.13516   0.72670   0.13102   0.13672
Cu         Cu      0.29244   0.26804   0.21474   0.17056
Cu         Cu      0.28349   0.18869   0.42697   0.19558
H          H       0.88638   0.84033   0.51133   0.12527
H          H       0.68514   0.13779   0.95603   0.13811
H          H       0.42789   0.13387   0.06295   0.10102
H          H       0.45442   0.03439   0.87966   0.07351
H          H       0.30428   0.17651   0.84461   0.10454
H          H       0.40293   0.44078   0.07819   0.09615
H          H       0.08793   0.30039   0.03507   0.07328
H          H       0.30077   0.79482   0.60164   0.08831
H          H       0.51428   0.68432   0.50312   0.05025
H          H       0.52568   0.95268   0.67339   0.05846
H          H       0.70123   0.08395   0.62312   0.07851
H          H       0.58771   0.87282   0.38189   0.08606
H          H       0.01381   0.01914   0.36108   0.09203
H          H       0.19525   0.61430   0.92238   0.10571
H          H       0.47284   0.73434   0.87866   0.07240
H          H       0.43289   0.75938   0.04003   0.13201
H          H       0.58286   0.60392   0.03096   0.09866
H          H       0.46873   0.35218   0.78999   0.08552
H          H       0.96563   0.04424   0.15219   0.09103
H          H       0.91680   0.39783   0.72188   0.10833
H          H       0.64245   0.48760   0.51613   0.09183
H          H       0.70448   0.29314   0.44343   0.09336
H          H       0.47397   0.10124   0.40296   0.13427
H          H       0.56438   0.29477   0.64509   0.07763
C          C       0.80956   0.66132   0.36977   0.10699
C          C       0.70714   0.30574   0.09245   0.05165
C          C       0.47191   0.19522   0.00269  -0.10528
C          C       0.40869   0.32351   0.96113  -0.18785
C          C       0.16225   0.49365   0.15737  -0.12376
C          C       0.27191   0.70070   0.46148   0.06561
C          C       0.50249   0.83866   0.53206  -0.06863
C          C       0.59787  -0.00196   0.51390  -0.16278
C          C       0.08674   0.18010   0.50503   0.11404
C          C       0.17521   0.47552   0.78693   0.10390
C          C       0.41985   0.62654   0.90842  -0.07887
C          C       0.47642   0.47120   0.91855  -0.17150
C          C       0.92190   0.86634   0.01778   0.12244
C          C       0.89995   0.54173   0.79980   0.06107
C          C       0.67734   0.38280   0.54211  -0.08397
C          C       0.57214   0.19313   0.52575  -0.20572
N          N       0.83007   0.49787   0.24092  -0.26544
N          N       0.68080   0.57645   0.30602  -0.20647
N          N       0.61795   0.35387   0.12986   0.16822
N          N       0.14747   0.54845   0.31507  -0.32855
N          N       0.29482   0.52916   0.21906  -0.33271
N          N       0.36351   0.74109   0.41522   0.04470
N          N       0.05476   0.29177   0.62845  -0.35202
N          N       0.21850   0.28210   0.57753  -0.20875
N          N       0.27518   0.47650   0.76412   0.15169
N          N       0.97853   0.72711   0.98449  -0.28182
N          N       0.81236   0.77401   0.86694  -0.29749
N          N       0.80099   0.56718   0.72812   0.16500
O          O       0.30757   0.04228   0.22919  -0.70049

