data_crystal

_audit_creation_method 'AiiDA-DDEC plugin'

_cell_length_a         8.93014
_cell_length_b         8.66065
_cell_length_c         9.33139

_cell_angle_alpha     83.12463
_cell_angle_beta     79.30239
_cell_angle_gamma     72.80562

_symmetry_space_group_name_Hall 'P 1'
_symmetry_space_group_name_H-M  'P 1'

loop_
_symmetry_equiv_pos_as_xyz
 'x,y,z'

loop_
_atom_site_label
_atom_site_type_symbol
_atom_site_fract_x
_atom_site_fract_y
_atom_site_fract_z
_atom_site_charge
Mn         Mn      0.88130   0.30310   0.70386   1.27177
Mn         Mn      0.37852   0.92057   0.94320   1.32100
Mn         Mn      0.11870   0.69692   0.29614   1.27178
Mn         Mn      0.62147   0.07945   0.05680   1.32113
P          P       0.59355   0.14804   0.72039   1.52104
P          P       0.67264   0.64925   0.79739   1.55831
P          P       0.40645   0.85197   0.27961   1.52093
P          P       0.32735   0.35077   0.20261   1.55805
H          H       0.52471   0.40722   0.72439   0.41987
H          H       0.64505   0.87726   0.63316   0.42393
H          H       0.82279   0.74154   0.90482   0.40016
H          H       0.47529   0.59280   0.27560   0.41970
H          H       0.35495   0.12275   0.36684   0.42394
H          H       0.17719   0.25849   0.09518   0.39996
C          C       0.95721   0.48349   0.44219   0.46913
C          C       0.15272   0.06203   0.76941   0.46899
C          C       0.08556   0.13667   0.91604   0.45305
C          C       0.04279   0.51653   0.55781   0.46924
C          C       0.84727   0.93799   0.23059   0.46946
C          C       0.91443   0.86335   0.08396   0.45287
O          O       0.76321   0.15305   0.73143  -0.76129
O          O       0.58066   0.03999   0.61216  -0.67902
O          O       0.53211   0.07857   0.88210  -0.81146
O          O       0.48202   0.32500   0.69361  -0.62691
O          O       0.68918   0.47190   0.76930  -0.75308
O          O       0.50629   0.71757   0.88839  -0.73471
O          O       0.70058   0.74673   0.65010  -0.70579
O          O       0.80466   0.63655   0.89324  -0.65127
O          O       0.87649   0.38476   0.47507  -0.42579
O          O       0.97698   0.56152   0.31703  -0.45991
O          O       0.28304   0.94836   0.76777  -0.41484
O          O       0.07932   0.11300   0.66299  -0.37424
O          O       0.18189   0.08599   0.01239  -0.50258
O          O       0.95187   0.23362   0.93613  -0.40657
O          O       0.23678   0.84696   0.26857  -0.76140
O          O       0.41934   0.96003   0.38784  -0.67899
O          O       0.46788   0.92146   0.11789  -0.81133
O          O       0.51797   0.67502   0.30638  -0.62667
O          O       0.31081   0.52812   0.23071  -0.75283
O          O       0.49370   0.28246   0.11161  -0.73452
O          O       0.29940   0.25328   0.34988  -0.70591
O          O       0.19533   0.36348   0.10676  -0.65108
O          O       0.12350   0.61527   0.52493  -0.42561
O          O       0.02301   0.43850   0.68297  -0.46000
O          O       0.71695   0.05166   0.23223  -0.41509
O          O       0.92067   0.88702   0.33701  -0.37450
O          O       0.81810   0.91402   0.98761  -0.50254
O          O       0.04812   0.76639   0.06387  -0.40638

