data_crystal

_audit_creation_method 'AiiDA-DDEC plugin'

_cell_length_a         8.09588
_cell_length_b        10.29292
_cell_length_c        11.49162

_cell_angle_alpha     89.99577
_cell_angle_beta     84.99437
_cell_angle_gamma     89.98780

_symmetry_space_group_name_Hall 'P 1'
_symmetry_space_group_name_H-M  'P 1'

loop_
_symmetry_equiv_pos_as_xyz
 'x,y,z'

loop_
_atom_site_label
_atom_site_type_symbol
_atom_site_fract_x
_atom_site_fract_y
_atom_site_fract_z
_atom_site_charge
Co         Co     -0.00003   0.49995  -0.00000   0.88152
Co         Co      0.50002  -0.00004   0.50001   0.88162
H          H       0.70338   0.38294   0.90926   0.09966
H          H       0.44895   0.44725   0.81579   0.11435
H          H       0.63831   0.83919   0.79823   0.12840
H          H       0.88057   0.75967   0.89795   0.09115
H          H       0.24880   0.80712   0.62535   0.03841
H          H       0.10367   0.68223   0.75012   0.04228
H          H       0.79652   0.88287   0.59098   0.09971
H          H       0.05095   0.94720   0.68441   0.11422
H          H       0.86152   0.33919   0.70171   0.12851
H          H       0.61930   0.25965   0.60200   0.09120
H          H       0.25117   0.30708   0.87456   0.03833
H          H       0.39625   0.18225   0.74977   0.04229
H          H       0.29661   0.61695   0.09063   0.09955
H          H       0.55107   0.55267   0.18408   0.11409
H          H       0.36160   0.16076   0.20189   0.12858
H          H       0.11935   0.24024   0.10213   0.09128
H          H       0.75121   0.19291   0.37469   0.03825
H          H       0.89630   0.31774   0.24990   0.04233
H          H       0.20348   0.11701   0.40912   0.09971
H          H       0.94903   0.05271   0.31571   0.11411
H          H       0.13856   0.66075   0.29816   0.12858
H          H       0.38078   0.74026   0.39790   0.09137
H          H       0.74884   0.69294   0.12537   0.03834
H          H       0.60377   0.81774   0.25021   0.04231
C          C       0.68328   0.48284   0.88336   0.08781
C          C       0.54249   0.51953   0.83111  -0.18115
C          C       0.64741   0.73719   0.82121  -0.18719
C          C       0.78360   0.69328   0.87570   0.06753
C          C       0.52020   0.64981   0.79875   0.17049
C          C       0.36876   0.69153   0.74787  -0.19334
C          C       0.37099   0.78137   0.65469   0.21068
C          C       0.21093   0.64828   0.79497   0.21755
C          C       0.81663   0.98279   0.61680   0.08769
C          C       0.95741   0.01949   0.66902  -0.18112
C          C       0.85246   0.23718   0.67878  -0.18743
C          C       0.71628   0.19326   0.62430   0.06753
C          C       0.97969   0.14979   0.70128   0.17104
C          C       0.13115   0.19151   0.75211  -0.19403
C          C       0.12896   0.28137   0.84526   0.21119
C          C       0.28898   0.14827   0.70497   0.21817
C          C       0.31670   0.51706   0.11658   0.08746
C          C       0.45750   0.48039   0.16883  -0.18074
C          C       0.35253   0.26275   0.17885  -0.18724
C          C       0.21634   0.30664   0.12434   0.06757
C          C       0.47977   0.35013   0.20125   0.17025
C          C       0.63120   0.30844   0.25215  -0.19372
C          C       0.62901   0.21862   0.34535   0.21148
C          C       0.78904   0.35168   0.20504   0.21755
C          C       0.18339   0.01710   0.38325   0.08681
C          C       0.04260   0.98042   0.33104  -0.18083
C          C       0.14760   0.76275   0.32115  -0.18709
C          C       0.28378   0.80666   0.37564   0.06708
C          C       0.02034   0.85014   0.29871   0.17091
C          C       0.86888   0.80845   0.24787  -0.19400
C          C       0.87105   0.71861   0.15470   0.21144
C          C       0.71104   0.85170   0.29501   0.21758
N          N       0.80366   0.56774   0.90656  -0.26553
N          N       0.69624   0.06771   0.59353  -0.26546
N          N       0.19629   0.43216   0.09344  -0.26522
N          N       0.30381   0.93219   0.40647  -0.26479
O          O       0.49991   0.83252   0.60341  -0.43661
O          O       0.18685   0.57770   0.88526  -0.44533
O          O       0.00005   0.33256   0.89656  -0.43667
O          O       0.31308   0.07768   0.61469  -0.44589
O          O       0.50011   0.16746   0.39666  -0.43686
O          O       0.81313   0.42224   0.11474  -0.44533
O          O      -0.00006   0.66739   0.10340  -0.43683
O          O       0.68695   0.92228   0.38530  -0.44555

