data_crystal

_audit_creation_method 'AiiDA-DDEC plugin'

_cell_length_a         6.77578
_cell_length_b        15.28245
_cell_length_c        15.41970

_cell_angle_alpha     118.02846
_cell_angle_beta     100.01717
_cell_angle_gamma     97.55093

_symmetry_space_group_name_Hall 'P 1'
_symmetry_space_group_name_H-M  'P 1'

loop_
_symmetry_equiv_pos_as_xyz
 'x,y,z'

loop_
_atom_site_label
_atom_site_type_symbol
_atom_site_fract_x
_atom_site_fract_y
_atom_site_fract_z
_atom_site_charge
Fe         Fe      0.98836   0.59091   0.26913   0.85477
Fe         Fe      0.69836   0.73476   0.32218   0.98756
Fe         Fe      0.34415   0.66967   0.39150   0.87332
Fe         Fe      0.01693   0.40737   0.73001   0.85826
Fe         Fe      0.30740   0.26376   0.67735   0.98870
Fe         Fe      0.66071   0.32823   0.60765   0.87448
H          H       0.87521   0.56708   0.02829   0.14067
H          H       0.60008   0.48060   0.21854   0.34675
H          H       0.57563   0.30036   0.11479   0.09388
H          H       0.65434   0.37370   0.05791   0.09700
H          H       0.84382   0.34060   0.12574   0.11730
H          H       0.85091   0.97136   0.54118   0.13938
H          H       0.35739   0.77073   0.25299   0.34979
H          H       0.41977   0.87137   0.17196   0.09289
H          H       0.54702   0.93748   0.30636   0.09658
H          H       0.68652   0.87643   0.21521   0.11561
H          H       0.30570   0.45065   0.43693   0.13901
H          H       0.09375   0.73713   0.50097   0.34431
H          H       0.28216   0.82878   0.68264   0.09679
H          H       0.26790   0.69371   0.61752   0.09816
H          H       0.49391   0.78262   0.63625   0.11879
H          H       0.13041   0.43155   0.97105   0.14128
H          H       0.40517   0.51789   0.78079   0.34775
H          H       0.42862   0.69813   0.88433   0.09445
H          H       0.35029   0.62473   0.94123   0.09878
H          H       0.16047   0.65750   0.87321   0.11773
H          H       0.15520   0.02682   0.45865   0.13954
H          H       0.64723   0.22720   0.74682   0.34855
H          H       0.58189   0.12641   0.82752   0.09401
H          H       0.45608   0.06072   0.69298   0.09879
H          H       0.31575   0.12192   0.78363   0.11506
H          H       0.69869   0.54699   0.56181   0.13975
H          H       0.91120   0.26052   0.49814   0.34324
H          H       0.72269   0.16844   0.31646   0.09727
H          H       0.73677   0.30350   0.38126   0.10028
H          H       0.51092   0.21465   0.36279   0.11901
C          C       0.68846   0.44560   0.83259   0.59498
C          C       0.58854   0.47045   0.91622  -0.16887
C          C       0.63264   0.56883   0.10134   0.30129
C          C       0.71165   0.53804   0.01620  -0.20102
C          C       0.69541   0.36164   0.12294  -0.13611
C          C       0.86138   0.16817   0.62272   0.59336
C          C       0.67541   0.08356   0.55936  -0.16196
C          C       0.53038   0.89766   0.46450   0.29414
C          C       0.69778   0.98318   0.52328  -0.21158
C          C       0.53575   0.87163   0.23155  -0.13026
C          C       0.24271   0.38462   0.56222   0.60970
C          C       0.11687   0.44485   0.53376  -0.16878
C          C       0.06143   0.52443   0.42807   0.30561
C          C       0.17155   0.47128   0.46393  -0.19917
C          C       0.32535   0.76651   0.62152  -0.12829
C          C       0.31711   0.55290   0.16671   0.59642
C          C       0.41709   0.52816   0.08312  -0.16833
C          C       0.37299   0.42980   0.89801   0.30294
C          C       0.29398   0.46060   0.98315  -0.20204
C          C       0.30913   0.63671   0.87614  -0.13844
C          C       0.14467   0.83010   0.37700   0.59455
C          C       0.33070   0.91461   0.44047  -0.16529
C          C       0.47572   0.10049   0.53530   0.29006
C          C       0.30832   0.01499   0.47656  -0.20811
C          C       0.46702   0.12649   0.76777  -0.13254
C          C       0.76195   0.61317   0.43666   0.60596
C          C       0.88756   0.55281   0.46501  -0.16661
C          C       0.94299   0.47324   0.57069   0.30565
C          C       0.83283   0.52635   0.53480  -0.20261
C          C       0.67948   0.23079   0.37749  -0.13183
O          O       0.88378   0.46973   0.85057  -0.49382
O          O       0.56706   0.40051   0.74005  -0.59324
O          O       0.76334   0.63451   0.19440  -0.56774
O          O       0.72444   0.45444   0.21882  -0.41496
O          O       0.03992   0.15198   0.62113  -0.51842
O          O       0.83409   0.25917   0.68162  -0.60649
O          O       0.56547   0.80371   0.43491  -0.57528
O          O       0.48480   0.77650   0.23098  -0.43905
O          O       0.41983   0.38393   0.54775  -0.49502
O          O       0.15499   0.33050   0.59738  -0.60871
O          O       0.12773   0.54573   0.36066  -0.56695
O          O       0.24640   0.76125   0.52545  -0.41892
O          O       0.12176   0.52881   0.14867  -0.49376
O          O       0.43844   0.59780   0.25923  -0.59409
O          O       0.24229   0.36412   0.80498  -0.56969
O          O       0.28067   0.54392   0.78033  -0.41713
O          O       0.96620   0.84630   0.37868  -0.51755
O          O       0.17177   0.73911   0.31783  -0.60680
O          O       0.44059   0.19441   0.56480  -0.57354
O          O       0.51962   0.22174   0.76871  -0.43722
O          O       0.58466   0.61373   0.45096  -0.49351
O          O       0.85008   0.66749   0.40181  -0.60610
O          O       0.87671   0.45203   0.63816  -0.56716
O          O       0.75857   0.23635   0.47369  -0.41719

