data_crystal

_audit_creation_method 'AiiDA-DDEC plugin'

_cell_length_a         9.15155
_cell_length_b         9.15317
_cell_length_c        11.31181

_cell_angle_alpha     90.99351
_cell_angle_beta     90.80628
_cell_angle_gamma     98.38689

_symmetry_space_group_name_Hall 'P 1'
_symmetry_space_group_name_H-M  'P 1'

loop_
_symmetry_equiv_pos_as_xyz
 'x,y,z'

loop_
_atom_site_label
_atom_site_type_symbol
_atom_site_fract_x
_atom_site_fract_y
_atom_site_fract_z
_atom_site_charge
Co         Co      0.01546   0.00010   0.74266   1.18982
Co         Co      0.99593   0.02180   0.24243   1.18997
H          H       0.52067   0.04807   0.71782   0.15574
H          H       0.93445   0.48819   0.78435   0.15959
H          H       0.48364   0.94086   0.28386   0.15495
H          H       0.04509   0.52694   0.21756   0.15530
C          C       0.37342   0.99294   0.56726  -0.03770
C          C       0.36221   0.96072   0.44464  -0.00362
C          C       0.51285   0.02396   0.62313  -0.09186
C          C       0.23904   0.99510   0.63629   0.53531
C          C       0.21748   0.91165   0.38032   0.58655
C          C       0.99223   0.63471   0.93403  -0.00822
C          C       0.02332   0.64660   0.05664  -0.01399
C          C       0.95855   0.49553   0.87899  -0.10877
C          C       0.99337   0.76859   0.86140   0.53707
C          C       0.07216   0.79466   0.11588   0.56711
C          C       0.62964   0.99674   0.43394  -0.00814
C          C       0.64093   0.02656   0.55680  -0.01422
C          C       0.49065   0.96419   0.37866  -0.10443
C          C       0.76401  -0.00149   0.36135   0.53643
C          C       0.78875   0.07445   0.61628   0.56797
C          C       0.98793   0.37910   0.06740  -0.04056
C          C       0.95491   0.36739   0.94498  -0.00308
C          C       0.02031   0.51876   0.12301  -0.09027
C          C       0.98974   0.24496   0.13642   0.53583
C          C       0.90516   0.22261   0.88072   0.58816
O          O       0.11129   0.98091   0.58488  -0.42824
O          O       0.23856   0.01229   0.74965  -0.42727
O          O       0.16876   0.02421   0.32621  -0.46593
O          O       0.16336   0.78148   0.37432  -0.38306
O          O       0.97546   0.89097   0.91007  -0.44628
O          O       0.01385   0.76355   0.74976  -0.45266
O          O       0.96837   0.83071   0.18978  -0.43910
O          O       0.19269   0.86782   0.10004  -0.42495
O          O       0.88638   0.98095   0.40986  -0.44484
O          O       0.75946   0.01945   0.24982  -0.45229
O          O       0.82434   0.97077   0.69007  -0.43915
O          O       0.86248   0.19465   0.60046  -0.42513
O          O       0.97555   0.11705   0.08492  -0.42723
O          O       0.00685   0.24482   0.24973  -0.42831
O          O       0.01759   0.17323   0.82650  -0.46573
O          O       0.77485   0.16907   0.87462  -0.38475

