data_crystal

_audit_creation_method 'AiiDA-DDEC plugin'

_cell_length_a         6.94266
_cell_length_b         5.94202
_cell_length_c        16.70997

_cell_angle_alpha     89.94064
_cell_angle_beta     91.04467
_cell_angle_gamma     90.13171

_symmetry_space_group_name_Hall 'P 1'
_symmetry_space_group_name_H-M  'P 1'

loop_
_symmetry_equiv_pos_as_xyz
 'x,y,z'

loop_
_atom_site_label
_atom_site_type_symbol
_atom_site_fract_x
_atom_site_fract_y
_atom_site_fract_z
_atom_site_charge
Zn         Zn      0.61688   0.11960   0.62496   0.02954
Zn         Zn      0.11700   0.37206   0.12493   0.02864
Zn         Zn      0.11676   0.86946   0.37519   0.03660
Zn         Zn      0.61689   0.62944   0.87511   0.03628
Zn         Zn      0.01670   0.53708   0.49645   0.73113
Zn         Zn      0.01645   0.03639   0.00360   0.72996
Zn         Zn      0.51651   0.45542   0.50367   0.72988
Zn         Zn      0.51661   0.95946   0.99656   0.73330
H          H       0.04651   0.14086   0.80762   0.10619
H          H       0.94421   0.35187   0.31597   0.10118
H          H       0.56651   0.85591   0.19291   0.10439
H          H       0.46413   0.63754   0.68597   0.09858
H          H       0.96354   0.85289   0.18582   0.09905
H          H       0.06710   0.64335   0.69248   0.10487
H          H       0.44442   0.14621   0.81635   0.10073
H          H       0.54648   0.35355   0.30759   0.10626
H          H       0.78844   0.24818   0.43846   0.33243
H          H       0.28726   0.24491   0.93807   0.33400
H          H       0.29716   0.74672   0.56204   0.32911
H          H       0.79472   0.74553   0.06163   0.33045
C          C       0.89980   0.14459   0.82820   0.15479
C          C       0.09536   0.34693   0.33220   0.11049
C          C       0.41749   0.85427   0.17289   0.15191
C          C       0.61356   0.64333   0.66928   0.11671
C          C       0.11310   0.84922   0.16928   0.11621
C          C       0.91798   0.64263   0.67260   0.15140
C          C       0.59563   0.15053   0.83252   0.11025
C          C       0.39963   0.35108   0.32804   0.15531
N          N       0.85761   0.13863   0.90621  -0.22175
N          N       0.15726   0.35592   0.40949  -0.23662
N          N       0.36725   0.86404   0.09496  -0.22206
N          N       0.66732   0.63070   0.59191  -0.23435
N          N       0.16721   0.86180   0.09194  -0.23406
N          N       0.86734   0.63132   0.59473  -0.22065
N          N       0.65774   0.14167   0.90981  -0.23697
N          N       0.35714   0.35777   0.40601  -0.22043
N          N       0.74142   0.15249   0.78041  -0.29847
N          N       0.24136   0.34381   0.28019  -0.29863
N          N       0.26423   0.84472   0.22113  -0.30800
N          N       0.76496   0.65056   0.72097  -0.30836
O          O       0.76721   0.40921   0.44464  -0.80690
O          O       0.26698   0.08364   0.94449  -0.80701
O          O       0.27381   0.58602   0.55502  -0.80767
O          O       0.77343   0.90662   0.05490  -0.80772

