data_crystal

_audit_creation_method 'AiiDA-DDEC plugin'

_cell_length_a         7.66575
_cell_length_b        10.60132
_cell_length_c        11.16510

_cell_angle_alpha     110.82811
_cell_angle_beta     118.14152
_cell_angle_gamma     106.83268

_symmetry_space_group_name_Hall 'P 1'
_symmetry_space_group_name_H-M  'P 1'

loop_
_symmetry_equiv_pos_as_xyz
 'x,y,z'

loop_
_atom_site_label
_atom_site_type_symbol
_atom_site_fract_x
_atom_site_fract_y
_atom_site_fract_z
_atom_site_charge
Mn         Mn      0.14026   0.85629   0.77120   1.01907
Mn         Mn      0.86339   0.14244   0.23314   1.01963
Mn         Mn      0.00281  -0.00027   0.00269   1.12928
H          H       0.79567   0.02062   0.45759   0.11998
H          H       0.36266   0.24537   0.75882   0.10792
H          H       0.54602   0.12985   0.36312   0.11988
H          H       0.64076   0.75319   0.24527   0.10782
H          H       0.02013   0.59280   0.24852   0.11367
H          H       0.20781   0.97815   0.54695   0.12092
H          H       0.89744   0.22000   0.83739   0.09927
H          H       0.10593   0.77861   0.16683   0.09874
H          H       0.52651   0.50118   0.23306   0.11873
H          H       0.45774   0.86914   0.64167   0.11962
H          H       0.98295   0.40573   0.75555   0.11306
H          H       0.47728   0.49744   0.77115   0.12011
C          C       0.56455   0.64056   0.00831  -0.04005
C          C       0.51676   0.50131   0.13278  -0.08297
C          C       0.36659   0.06211   0.45230  -0.02705
C          C       0.06149   0.65672   0.09617  -0.08303
C          C       0.94193   0.34190   0.90805  -0.08587
C          C       0.35990   0.20525   0.98410   0.58787
C          C       0.95379   0.39527   0.04756  -0.02667
C          C       0.21310   0.12035   0.39077   0.57212
C          C       0.42437   0.35679   0.86524  -0.09307
C          C       0.79066   0.87862   0.61392   0.57577
C          C       0.63696   0.93671   0.55229  -0.02847
C          C       0.48686   0.49730   0.87137  -0.08449
C          C       0.52982   0.07314   0.42479  -0.08324
C          C       0.10305   0.71404   0.90961   0.58947
C          C       0.43921   0.35807   0.99589  -0.03977
C          C       0.64464   0.79355   0.02044   0.59102
C          C       0.47377   0.92571   0.57984  -0.08188
C          C       0.66522   0.01086   0.47493  -0.08696
C          C       0.90060   0.28460   0.09467   0.59139
C          C       0.01402   0.55343   0.14178  -0.09017
C          C       0.04966   0.60337   0.95668  -0.02895
C          C       0.57911   0.64179   0.13886  -0.09317
C          C       0.98927   0.44516   0.86239  -0.08910
C          C       0.33830   0.98794   0.52964  -0.08788
O          O       0.11475   0.15588   0.45087  -0.52031
O          O       0.35537   0.09181   0.88441  -0.57666
O          O       0.83433   0.87064   0.73728  -0.59080
O          O       0.71052   0.80665   0.93774  -0.57365
O          O       0.84251   0.13870   0.00938  -0.60145
O          O       0.09097   0.66286   0.78040  -0.53689
O          O       0.64855   0.90684   0.11974  -0.57727
O          O       0.17019   0.12892   0.26784  -0.59038
O          O       0.29536   0.19242   0.06755  -0.57207
O          O       0.88841   0.84268   0.55344  -0.52306
O          O       0.91164   0.33550   0.22343  -0.53879
O          O       0.16238   0.86024   0.99537  -0.60122

