data_crystal

_audit_creation_method 'AiiDA-DDEC plugin'

_cell_length_a         7.18224
_cell_length_b        13.37221
_cell_length_c        17.91202

_cell_angle_alpha     90.07200
_cell_angle_beta     99.09505
_cell_angle_gamma     89.90730

_symmetry_space_group_name_Hall 'P 1'
_symmetry_space_group_name_H-M  'P 1'

loop_
_symmetry_equiv_pos_as_xyz
 'x,y,z'

loop_
_atom_site_label
_atom_site_type_symbol
_atom_site_fract_x
_atom_site_fract_y
_atom_site_fract_z
_atom_site_charge
In         In      0.47105   0.10733   0.45406   1.48400
In         In      0.52853   0.60723   0.04595   1.48462
In         In      0.52887   0.89264   0.54590   1.48413
In         In      0.47144   0.39276   0.95403   1.48459
In         In      0.00004   0.00000   0.49999   1.56361
In         In     -0.00001   0.49999  -0.00001   1.56520
H          H       0.22373   0.23486   0.77031   0.13492
H          H       0.52097   0.21062   0.72470   0.14101
H          H       0.77780   0.73525   0.72926   0.13466
H          H       0.48063   0.71129   0.77554   0.14094
H          H       0.77623   0.76511   0.22968   0.13495
H          H       0.47898   0.78934   0.27527   0.14386
H          H       0.22217   0.26475   0.27073   0.13462
H          H       0.51934   0.28871   0.22444   0.14098
C          C       0.77830   0.17736   0.68253   0.02606
C          C       0.97906   0.18197   0.69481  -0.00863
C          C       0.07054   0.22962   0.75993  -0.09372
C          C       0.96672   0.27191   0.81191  -0.00931
C          C       0.76654   0.26561   0.79876   0.02171
C          C       0.67414   0.21688   0.73498  -0.11567
C          C       0.67268   0.12923   0.61302   0.58665
C          C       0.08854   0.13516   0.63789   0.56497
C          C       0.06600   0.32942   0.87883   0.61646
C          C       0.65100   0.30859   0.85296   0.54939
C          C       0.22309   0.67724   0.81707   0.02715
C          C       0.02231   0.68202   0.80474  -0.00939
C          C       0.93100   0.73008   0.73980  -0.09355
C          C       0.03490   0.77276   0.68816  -0.01064
C          C       0.23519   0.76681   0.70155   0.02157
C          C       0.32743   0.71757   0.76511  -0.11651
C          C       0.32831   0.62799   0.88617   0.58806
C          C       0.91245   0.63519   0.86139   0.56583
C          C       0.93536   0.83009   0.62128   0.61715
C          C       0.35082   0.81020   0.64765   0.54997
C          C       0.22166   0.82261   0.31745   0.02580
C          C       0.02091   0.81800   0.30517  -0.00866
C          C       0.92941   0.77035   0.24005  -0.09371
C          C       0.03322   0.72806   0.18808  -0.00947
C          C       0.23341   0.73436   0.20121   0.02176
C          C       0.32581   0.78308   0.26500  -0.11782
C          C       0.32732   0.87079   0.38692   0.58674
C          C       0.91146   0.86483   0.36210   0.56515
C          C       0.93394   0.67056   0.12114   0.61641
C          C       0.34894   0.69138   0.14702   0.54937
C          C       0.77688   0.32275   0.18292   0.02726
C          C       0.97766   0.31797   0.19524  -0.00937
C          C       0.06897   0.26993   0.26019  -0.09378
C          C       0.96507   0.22725   0.31183  -0.01047
C          C       0.76478   0.23320   0.29845   0.02172
C          C       0.67254   0.28243   0.23488  -0.11661
C          C       0.67166   0.37200   0.11381   0.58795
C          C       0.08752   0.36481   0.13859   0.56612
C          C       0.06462   0.16992   0.37871   0.61703
C          C       0.64915   0.18980   0.35234   0.55003
O          O       0.57126   0.18182   0.56454  -0.48320
O          O       0.69823   0.03472   0.61445  -0.41600
O          O       0.00007   0.13380   0.56921  -0.55297
O          O       0.24810   0.10033   0.66174  -0.37303
O          O       0.22815   0.29862   0.90880  -0.53523
O          O       0.97681   0.40560   0.89714  -0.53652
O          O       0.67176   0.27333   0.91985  -0.48984
O          O       0.53149   0.37692   0.83114  -0.49342
O          O       0.69053   0.99218   0.48385  -0.79294
O          O       0.42884   0.68022   0.93523  -0.48629
O          O       0.30332   0.53355   0.88373  -0.41780
O          O       0.00106   0.63269   0.93000  -0.55323
O          O       0.75210   0.60166   0.83751  -0.37378
O          O       0.77311   0.79944   0.59146  -0.53539
O          O       0.02444   0.90592   0.60270  -0.53799
O          O       0.33168   0.77432   0.58084  -0.49099
O          O       0.46873   0.87911   0.66927  -0.49330
O          O       0.30915   0.49290   0.01596  -0.79957
O          O       0.42871   0.81819   0.43543  -0.48357
O          O       0.30185   0.96529   0.38545  -0.41646
O          O      -0.00003   0.86621   0.43077  -0.55319
O          O       0.75189   0.89967   0.33826  -0.37329
O          O       0.77180   0.70137   0.09118  -0.53500
O          O       0.02313   0.59438   0.10284  -0.53647
O          O       0.32815   0.72663   0.08013  -0.48972
O          O       0.46850   0.62308   0.16885  -0.49361
O          O       0.30950   0.00783   0.51617  -0.79380
O          O       0.57114   0.31977   0.06476  -0.48616
O          O       0.69665   0.46643   0.11626  -0.41781
O          O      -0.00107   0.36730   0.06999  -0.55314
O          O       0.24788   0.39834   0.16248  -0.37409
O          O       0.22685   0.20057   0.40853  -0.53542
O          O       0.97555   0.09407   0.39728  -0.53798
O          O       0.66830   0.22567   0.41915  -0.49118
O          O       0.53126   0.12089   0.33071  -0.49317
O          O       0.69084   0.50709   0.98402  -0.79957

