data_crystal

_audit_creation_method 'AiiDA-DDEC plugin'

_cell_length_a        11.77349
_cell_length_b        12.22852
_cell_length_c        11.96320

_cell_angle_alpha     76.28354
_cell_angle_beta     60.52321
_cell_angle_gamma     61.22228

_symmetry_space_group_name_Hall 'P 1'
_symmetry_space_group_name_H-M  'P 1'

loop_
_symmetry_equiv_pos_as_xyz
 'x,y,z'

loop_
_atom_site_label
_atom_site_type_symbol
_atom_site_fract_x
_atom_site_fract_y
_atom_site_fract_z
_atom_site_charge
Ni         Ni      0.45440   0.50061   0.09054   1.14549
Ni         Ni      0.04500   0.50032   0.90947   1.14667
Ni         Ni      0.69357   0.61293   0.00002   1.17121
Ni         Ni      0.30583   0.38841  -0.00002   1.17221
H          H       0.79717   0.19645   0.04922   0.13650
H          H       0.04239   0.80449   0.95083   0.13730
H          H       0.74255   0.55692   0.30082   0.13649
H          H       0.59987   0.44359   0.69915   0.13636
H          H       0.95639   0.44383   0.30087   0.13665
H          H       0.70063   0.55668   0.69924   0.13634
H          H       0.00654   0.19643   0.95088   0.13157
H          H       0.15325   0.80453   0.04938   0.13733
H          H       0.60459   0.00053  -0.00030   0.13903
H          H       0.35538   0.50048   0.49986   0.14182
H          H       0.14419   0.50038   0.50014   0.14178
H          H       0.39517   0.00054   0.00026   0.13928
C          C       0.56336   0.23426   0.04211   0.58040
C          C       0.69131   0.11057   0.02261  -0.01735
C          C       0.80881   0.10985   0.02582  -0.12581
C          C       0.83931   0.76676   0.95770   0.58026
C          C       0.82414   0.89045   0.97710  -0.01629
C          C       0.94406   0.89111   0.97411  -0.12744
C          C       0.54519   0.54649   0.26229   0.58024
C          C       0.55069   0.52807   0.38791  -0.01265
C          C       0.66752   0.53105   0.38862  -0.12845
C          C       0.35346   0.45441   0.73757   0.58151
C          C       0.46627   0.47268   0.61195  -0.01365
C          C       0.58684   0.46951   0.61132  -0.12778
C          C       0.19210   0.45460   0.26243   0.58100
C          C       0.06100   0.47283   0.38802  -0.01338
C          C       0.94358   0.46966   0.38869  -0.12834
C          C       0.90851   0.54627   0.73772   0.58137
C          C       0.92135   0.52786   0.61214  -0.01293
C          C       0.80151   0.53087   0.61145  -0.12786
C          C       0.20253   0.23432   0.95797   0.57948
C          C       0.19832   0.11060   0.97748  -0.01666
C          C       0.08152   0.10986   0.97431  -0.12274
C          C       0.39419   0.76671   0.04232   0.58062
C          C       0.28567   0.89043   0.02295  -0.01655
C          C       0.16503   0.89112   0.02602  -0.12723
C          C       0.69682   0.00052  -0.00019  -0.09906
C          C       0.93731   0.00048   0.00002   0.06658
C          C       0.44768   0.50040   0.49990  -0.09708
C          C       0.68750   0.50023   0.49999   0.06785
C          C       0.05195   0.50035   0.50010  -0.09679
C          C       0.81227   0.50023   0.50004   0.06808
C          C       0.30291   0.00052   0.00023  -0.09858
C          C       0.06239   0.00049   0.00013   0.06714
O          O       0.48949   0.24751   0.98523  -0.44995
O          O       0.54456   0.31328   0.10862  -0.51028
O          O       0.72172   0.75364   0.01466  -0.44970
O          O       0.96600   0.68768   0.89124  -0.50988
O          O       0.49293   0.48682   0.24534  -0.45500
O          O       0.59897   0.62072   0.18421  -0.46649
O          O       0.22460   0.51391   0.75441  -0.45581
O          O       0.40331   0.38045   0.81582  -0.46714
O          O       0.26204   0.51344   0.24578  -0.45912
O          O       0.21562   0.38115   0.18401  -0.46734
O          O       0.02056   0.48731   0.75449  -0.45933
O          O       0.78024   0.62002   0.81595  -0.46770
O          O       0.26276   0.24775   0.01511  -0.44992
O          O       0.14258   0.31327   0.89118  -0.51081
O          O       0.52498   0.75337   0.98496  -0.45032
O          O       0.34655   0.68769   0.10910  -0.51116
O          O       0.37824   0.49934   0.98596  -0.53314
O          O       0.86282   0.50193   0.01416  -0.53280
O          O       0.63637   0.50046   0.98732  -0.53354
O          O       0.12355   0.50076   0.01256  -0.53453

