data_crystal

_audit_creation_method 'AiiDA-DDEC plugin'

_cell_length_a         7.80527
_cell_length_b        11.39890
_cell_length_c        11.82286

_cell_angle_alpha     118.83697
_cell_angle_beta     109.27783
_cell_angle_gamma     90.00053

_symmetry_space_group_name_Hall 'P 1'
_symmetry_space_group_name_H-M  'P 1'

loop_
_symmetry_equiv_pos_as_xyz
 'x,y,z'

loop_
_atom_site_label
_atom_site_type_symbol
_atom_site_fract_x
_atom_site_fract_y
_atom_site_fract_z
_atom_site_charge
Cu         Cu      0.91324   0.91234   0.82835   0.39656
Cu         Cu      0.41317   0.91252   0.82877   0.39527
Cu         Cu      0.91404   0.91238   0.32853   0.22251
Cu         Cu      0.41241   0.41252   0.32854   0.22248
H          H       0.75384   0.95024   0.55917   0.09766
H          H       0.07293   0.87391   0.09696   0.09865
H          H       0.75848   0.65364   0.51559   0.10275
H          H       0.06615   0.17155   0.14043   0.10249
H          H       0.25390   0.60519   0.56050   0.09816
H          H       0.57266   0.21966   0.09791   0.09771
H          H       0.25960   0.85817   0.51590   0.10271
H          H       0.56842   0.96727   0.14203   0.10265
C          C       0.88997   0.92524   0.57567   0.06827
C          C       0.93693   0.89914   0.08086   0.06652
C          C       0.64786   0.67098   0.55443   0.10535
C          C       0.17736   0.15410   0.10220   0.10550
C          C       0.38989   0.64660   0.57666   0.06775
C          C       0.43635   0.17828   0.08123   0.06751
C          C       0.14858   0.87934   0.55432   0.10508
C          C       0.67902   0.94576   0.10317   0.10550
N          N       0.99023   0.91011   0.68390  -0.19151
N          N       0.83637   0.91445   0.97286  -0.18931
N          N       0.65617   0.78433   0.67028  -0.20222
N          N       0.16970   0.04064   0.98664  -0.20128
N          N       0.49046   0.76995   0.68479  -0.19112
N          N       0.33600   0.05491   0.97288  -0.19154
N          N       0.15629   0.88166   0.66994  -0.20117
N          N       0.67073   0.94335   0.98740  -0.20251
N          N       0.98572   0.90526   0.49120  -0.29057
N          N       0.84187   0.91946   0.16582  -0.28961
N          N       0.48499   0.58202   0.49170  -0.28970
N          N       0.34039   0.24298   0.16548  -0.29056

