data_crystal

_audit_creation_method 'AiiDA-DDEC plugin'

_cell_length_a         9.32105
_cell_length_b         9.36387
_cell_length_c        11.67837

_cell_angle_alpha     85.96583
_cell_angle_beta     86.41488
_cell_angle_gamma     139.46423

_symmetry_space_group_name_Hall 'P 1'
_symmetry_space_group_name_H-M  'P 1'

loop_
_symmetry_equiv_pos_as_xyz
 'x,y,z'

loop_
_atom_site_label
_atom_site_type_symbol
_atom_site_fract_x
_atom_site_fract_y
_atom_site_fract_z
_atom_site_charge
Co         Co      0.01338   0.13887   0.47387   0.97218
Co         Co      0.83861   0.81413   0.33429   0.96902
Co         Co      0.14128   0.00869   0.97664   0.97685
Co         Co      0.83307   0.85170   0.83407   0.95820
H          H       0.45996   0.94273   0.78539   0.14235
H          H       0.31391   0.85585   0.38194   0.13769
H          H       0.95832   0.46162   0.28103   0.14038
H          H       0.86053   0.31873   0.87720   0.13599
C          C       0.54107   0.79446   0.42760   0.56115
C          C       0.67701   0.90647   0.66735   0.60976
C          C       0.21874   0.98268   0.74877   0.60040
C          C       0.16274   0.97049   0.48242   0.60826
C          C       0.47201   0.85774   0.50829  -0.05582
C          C       0.51898   0.88973   0.62138  -0.03338
C          C       0.43190   0.92854   0.69585  -0.10573
C          C       0.31152   0.95359   0.65780  -0.01859
C          C       0.27569   0.93628   0.54083  -0.01981
C          C       0.34885   0.87958   0.46998  -0.09616
C          C       0.80131   0.54492   0.92495   0.55896
C          C       0.90380   0.66647   0.16938   0.61429
C          C       0.98315   0.20872   0.24047   0.59825
C          C       0.97375   0.16194   0.97928   0.61630
C          C       0.86205   0.47213   0.00557  -0.05154
C          C       0.89568   0.51769   0.11941  -0.03486
C          C       0.94144   0.43457   0.19141  -0.10583
C          C       0.96538   0.31517   0.15118  -0.01732
C          C       0.94446   0.27959   0.03470  -0.02204
C          C       0.88637   0.35245   0.96544  -0.09265
O          O       0.68932   0.81287   0.46130  -0.63260
O          O       0.46759   0.72994   0.33729  -0.45738
O          O       0.88807   0.08893   0.62989  -0.54820
O          O       0.60198   0.75713   0.74905  -0.47563
O          O       0.26433   0.98687   0.85130  -0.54864
O          O       0.10522   0.00351   0.72524  -0.54977
O          O       0.22162   0.14538   0.49050  -0.52438
O          O       0.02192   0.82607   0.42165  -0.53580
O          O       0.81226   0.68528   0.96118  -0.62448
O          O       0.74905   0.48425   0.83034  -0.47496
O          O       0.08187   0.87917   0.13384  -0.55227
O          O       0.75421   0.58450   0.25292  -0.47483
O          O       0.03044   0.27933   0.33739  -0.54040
O          O       0.93674   0.04681   0.21799  -0.54654
O          O       0.14803   0.21862   0.98576  -0.53695
O          O       0.82228   0.01470   0.92409  -0.52348

