data_crystal

_audit_creation_method 'AiiDA-DDEC plugin'

_cell_length_a         4.32186
_cell_length_b        12.19000
_cell_length_c        12.53955

_cell_angle_alpha     128.29417
_cell_angle_beta     97.99155
_cell_angle_gamma     89.39129

_symmetry_space_group_name_Hall 'P 1'
_symmetry_space_group_name_H-M  'P 1'

loop_
_symmetry_equiv_pos_as_xyz
 'x,y,z'

loop_
_atom_site_label
_atom_site_type_symbol
_atom_site_fract_x
_atom_site_fract_y
_atom_site_fract_z
_atom_site_charge
Gd         Gd      0.61244   0.87046   0.54349   2.07646
Gd         Gd      0.36563   0.13188   0.46319   2.03129
H          H       0.98535   0.40842   0.03965   0.11429
H          H       0.74045   0.14563   0.93273   0.12271
H          H       0.41022   0.32872   0.31386   0.13571
H          H       0.76655   0.48591   0.26544   0.13103
H          H       0.04341   0.49282   0.38561   0.15505
H          H       0.62196   0.24461   0.82405   0.13354
H          H       0.30885   0.34940   0.84576   0.14598
H          H       0.80598   0.03539   0.05208   0.14910
H          H       0.05253   0.19098   0.16374   0.10999
H          H       0.03107   0.58403   0.96464   0.10983
H          H       0.27169   0.84484   0.07297   0.12814
H          H       0.60202   0.67638   0.69649   0.12520
H          H       0.25455   0.51712   0.73726   0.11760
H          H       0.00628   0.53915   0.63129   0.15510
H          H       0.39462   0.74217   0.17613   0.14312
H          H       0.71851   0.64877   0.15870   0.15868
H          H       0.22850   0.96552   0.95938   0.15188
H          H       0.95606   0.81655   0.86133   0.11006
C          C       0.18258   0.38124   0.18663   0.16310
C          C       0.16064   0.35578   0.06141  -0.18782
C          C       0.36904   0.27662   0.97251   0.09958
C          C       0.58389   0.21303   0.00494  -0.18905
C          C       0.58305   0.21850   0.12193   0.15944
C          C       0.38652   0.30665   0.21478  -0.22966
C          C       0.02203   0.49467   0.29663  -0.35204
C          C       0.16414   0.63584   0.34860   0.64062
C          C       0.38002   0.25927   0.84274  -0.36259
C          C       0.19237   0.13378   0.71586   0.71262
C          C       0.80757   0.14374   0.14681  -0.35817
C          C       0.79283   0.14327   0.26604   0.69013
C          C       0.82964   0.61464   0.81244   0.16541
C          C       0.85816   0.63859   0.93784  -0.20425
C          C       0.64604   0.71520   0.02883   0.08257
C          C       0.42370   0.77928  -0.00096  -0.18569
C          C       0.42107   0.77680   0.88421   0.15972
C          C       0.61660   0.68918   0.79039  -0.22147
C          C       0.00847   0.51174   0.69928  -0.35865
C          C       0.82044   0.36912   0.61081   0.66985
C          C       0.63591   0.73577   0.16085  -0.35704
C          C       0.81009   0.86632   0.28734   0.71244
C          C       0.19555   0.85565   0.86560  -0.36174
C          C       0.16962   0.85035   0.74097   0.69173
O          O       0.04658   0.74801   0.44215  -0.74511
O          O       0.38995   0.65060   0.30092  -0.58843
O          O       0.32180   0.07073   0.60435  -0.81772
O          O       0.93556   0.08640   0.71585  -0.58054
O          O       0.55891   0.08086   0.26634  -0.63731
O          O       0.03165   0.20687   0.36116  -0.66315
O          O       0.91941   0.26135   0.59955  -0.73248
O          O       0.55508   0.36015   0.54950  -0.58642
O          O       0.68944   0.93079   0.40087  -0.82508
O          O       0.06353   0.91265   0.28399  -0.58883
O          O       0.39002   0.91121   0.73032  -0.66595
O          O       0.91244   0.79138   0.65520  -0.65279

