data_crystal

_audit_creation_method 'AiiDA-DDEC plugin'

_cell_length_a         4.55211
_cell_length_b        10.94372
_cell_length_c        12.88320

_cell_angle_alpha     89.29246
_cell_angle_beta     79.83558
_cell_angle_gamma     86.05950

_symmetry_space_group_name_Hall 'P 1'
_symmetry_space_group_name_H-M  'P 1'

loop_
_symmetry_equiv_pos_as_xyz
 'x,y,z'

loop_
_atom_site_label
_atom_site_type_symbol
_atom_site_fract_x
_atom_site_fract_y
_atom_site_fract_z
_atom_site_charge
Cu         Cu      0.83788   0.78201   0.23067   0.84698
Cu         Cu      0.06654   0.28178   0.76880   0.84606
H          H       0.29327   0.51167   0.65498   0.10934
H          H       0.22439   0.61817   0.48476   0.12333
H          H       0.53812   0.37672   0.45953   0.12993
H          H       0.65214   0.27080   0.62260   0.09613
H          H       0.57609   0.10706   0.79457   0.09716
H          H       0.73257   0.96905   0.93314   0.13215
H          H       0.89156   0.06782   0.13065   0.13166
H          H       0.78260   0.22051   0.99017   0.10127
H          H       0.94935   0.01243   0.34444   0.10831
H          H       0.70786   0.11928   0.51421   0.12341
H          H      -0.00092   0.87656   0.53927   0.12988
H          H       0.27828   0.77047   0.37664   0.09643
H          H       0.37249   0.60727   0.20453   0.09774
H          H       0.66592   0.46891   0.06610   0.13279
H          H       0.02083   0.56765   0.86907   0.13078
H          H       0.77272   0.72056   0.00945   0.10107
C          C       0.14320   0.48099   0.60569   0.07481
C          C       0.08373   0.54581   0.51664  -0.13052
C          C       0.85882   0.51340   0.46496  -0.00500
C          C       0.69553   0.41269   0.50348  -0.13187
C          C       0.77082   0.34999   0.59144   0.09056
C          C       0.79332   0.58222   0.36951   0.54681
C          C       0.43383   0.10098   0.87153   0.09559
C          C       0.52865   0.02780   0.95129  -0.12457
C          C       0.32865   0.01603   0.04709  -0.01174
C          C       0.05291   0.08089   0.05928  -0.13451
C          C       0.97664   0.15608   0.97837   0.07752
C          C       0.39168   0.93026   0.13353   0.56520
C          C       0.75015   0.98153   0.39365   0.07699
C          C       0.60034   0.04648   0.48244  -0.13275
C          C       0.32386   0.01374   0.53390  -0.00282
C          C       0.20019   0.91274   0.49535  -0.13203
C          C       0.36470   0.84996   0.40772   0.09008
C          C       0.16123   0.08227   0.62919   0.54684
C          C       0.30631   0.60104   0.12773   0.09784
C          C       0.48006   0.52767   0.04800  -0.12729
C          C       0.37519   0.51591   0.95232  -0.01130
C          C       0.11155   0.58084   0.94028  -0.13341
C          C       0.95508   0.65614   0.02117   0.07854
C          C       0.52393   0.43010   0.86588   0.56583
N          N       0.98157   0.38497   0.64311  -0.22800
N          N       0.16854   0.16570   0.88507  -0.24471
N          N       0.62711   0.88516   0.35628  -0.22878
N          N       0.05458   0.66586   0.11432  -0.24666
O          O       0.96299   0.67203   0.34170  -0.54935
O          O       0.58660   0.55162   0.32512  -0.52458
O          O       0.64787   0.86974   0.11764  -0.55574
O          O       0.18730   0.92169   0.21268  -0.57765
O          O       0.30205   0.17195   0.65782  -0.54964
O          O       0.90966   0.05136   0.67273  -0.52441
O          O       0.76416   0.36945   0.88167  -0.55605
O          O       0.39838   0.42162   0.78680  -0.57767

