data_crystal

_audit_creation_method 'AiiDA-DDEC plugin'

_cell_length_a         9.22123
_cell_length_b         9.62157
_cell_length_c         9.57702

_cell_angle_alpha     70.93036
_cell_angle_beta     72.76105
_cell_angle_gamma     72.91278

_symmetry_space_group_name_Hall 'P 1'
_symmetry_space_group_name_H-M  'P 1'

loop_
_symmetry_equiv_pos_as_xyz
 'x,y,z'

loop_
_atom_site_label
_atom_site_type_symbol
_atom_site_fract_x
_atom_site_fract_y
_atom_site_fract_z
_atom_site_charge
Ni         Ni      0.02415   0.21118   0.21069   1.08620
Ni         Ni      0.97582   0.78882   0.78904   1.08646
Ni         Ni     -0.00003  -0.00009  -0.00006   1.10169
H          H       0.20964   0.14831   0.98982   0.38246
H          H       0.57463   0.98648   0.23297   0.13504
H          H       0.78787   0.00466   0.85719   0.37967
H          H       0.42813   0.76532   0.01301   0.13330
H          H       0.79056   0.85114   0.01027   0.38055
H          H       0.42516   0.01338   0.76675   0.13514
H          H       0.21157   0.99476   0.14316   0.37970
H          H       0.57202   0.23462   0.98647   0.13365
C          C       0.54194   0.99217   0.35004  -0.10889
C          C       0.65466   0.99700   0.41823  -0.01845
C          C       0.61238   0.00385   0.56981  -0.01741
C          C       0.81075   0.01472   0.31582   0.60166
C          C       0.72569   0.98962   0.66111   0.58305
C          C       0.45969   0.64890   0.00736  -0.10684
C          C       0.34614   0.58259   0.00132  -0.02272
C          C       0.38679   0.43185   0.99456  -0.01567
C          C       0.19114   0.68570   0.98285   0.60220
C          C       0.27263   0.34204   0.00765   0.58554
C          C       0.45784   0.00772   0.64968  -0.10884
C          C       0.34514   0.00295   0.58148  -0.01831
C          C       0.38740   0.99595   0.42996  -0.01768
C          C       0.18907   0.98529   0.68394   0.60124
C          C       0.27381   0.00994   0.33904   0.58364
C          C       0.54046   0.35101   0.99216  -0.10706
C          C       0.65399   0.41732  -0.00177  -0.02199
C          C       0.61334   0.56804   0.00502  -0.01557
C          C       0.80898   0.31420   0.01675   0.60261
C          C       0.72753   0.65774   0.99208   0.58512
O          O       0.86944   0.10787   0.34194  -0.49683
O          O       0.86166   0.94888   0.21179  -0.52224
O          O       0.84637   0.88027   0.64673  -0.48895
O          O       0.69029   0.07070   0.75106  -0.46756
O          O       0.12893   0.65708   0.89370  -0.49470
O          O       0.14415   0.79229   0.04481  -0.52381
O          O       0.15436   0.35253   0.12085  -0.48929
O          O       0.30558   0.25640   0.92265  -0.46941
O          O       0.13024   0.89232   0.65770  -0.49651
O          O       0.13834   0.05094   0.78810  -0.52206
O          O       0.15360   0.11984   0.35296  -0.48997
O          O       0.30844   0.92819   0.24987  -0.46664
O          O       0.87131   0.34296   0.10572  -0.49551
O          O       0.85583   0.20746   0.95501  -0.52374
O          O       0.84576   0.64737   0.87884  -0.48946
O          O       0.69466   0.74316   0.07728  -0.46802
O          O       0.13919   0.07468   0.07082  -0.79757
O          O       0.86076   0.92504   0.92918  -0.79721

