data_crystal

_audit_creation_method 'AiiDA-DDEC plugin'

_cell_length_a         7.46822
_cell_length_b        11.80143
_cell_length_c        13.26140

_cell_angle_alpha     100.33498
_cell_angle_beta     84.55853
_cell_angle_gamma     89.69679

_symmetry_space_group_name_Hall 'P 1'
_symmetry_space_group_name_H-M  'P 1'

loop_
_symmetry_equiv_pos_as_xyz
 'x,y,z'

loop_
_atom_site_label
_atom_site_type_symbol
_atom_site_fract_x
_atom_site_fract_y
_atom_site_fract_z
_atom_site_charge
Zn         Zn      0.47760   0.28148   0.11584   0.76719
Zn         Zn      0.53163   0.72905   0.88446   0.76103
Ni         Ni      0.00376   0.00617   0.00189   0.27855
Ni         Ni      0.00414   0.50610   0.00198   0.26249
H          H       0.51969   0.42441   0.94430   0.08736
H          H       0.58066   0.39584   0.75631   0.11661
H          H       0.71463   0.44429   0.47443   0.13655
H          H       0.63112   0.45102   0.29623   0.10385
H          H       0.52697   0.93908   0.06225   0.09579
H          H       0.46724   0.98463   0.25367   0.12127
H          H       0.59976   0.88196   0.53901   0.14766
H          H       0.68525   0.85073   0.70986   0.10624
H          H       0.48857   0.58829   0.06014   0.09393
H          H       0.41669   0.61898   0.24987   0.12533
H          H       0.26814   0.57956   0.53364   0.13929
H          H       0.36088   0.56763   0.70943   0.10655
H          H       0.49091   0.07214   0.94156   0.08919
H          H       0.53902   0.02733   0.75240   0.11219
H          H       0.40515   0.13138   0.46356   0.14861
H          H       0.32763   0.15792   0.28961   0.10378
C          C       0.81053   0.09523   0.07042   0.03427
C          C       0.16419   0.09745   0.07546   0.03913
C          C       0.52719   0.33787   0.89939   0.07521
C          C       0.55974   0.32132   0.79344  -0.16915
C          C       0.62932   0.37966   0.43530  -0.17504
C          C       0.58181   0.38404   0.33775   0.07574
C          C       0.19513   0.56728   0.93241   0.03963
C          C       0.84144   0.56314   0.92603   0.04248
C          C       0.50398   0.87080   0.10670   0.09258
C          C       0.46942   0.89597   0.21312  -0.13906
C          C       0.54739   0.80943   0.57214  -0.17263
C          C       0.59308   0.79354   0.66755   0.08676
C          C       0.19793   0.91643   0.93487   0.03426
C          C       0.84381   0.91412   0.92828   0.03774
C          C       0.48225   0.67471   0.10543   0.09472
C          C       0.44422   0.69221   0.21183  -0.14796
C          C       0.36011   0.64084   0.57109  -0.17181
C          C       0.41256   0.63348   0.66720   0.08308
C          C       0.81353   0.44591   0.07256   0.03553
C          C       0.16690   0.44959   0.07804   0.04172
C          C       0.50952   0.14117   0.89765   0.07411
C          C       0.53853   0.11631   0.79173  -0.16545
C          C       0.45637   0.20386   0.42995  -0.16802
C          C       0.41440   0.21769   0.33348   0.08259
C          C       0.56822   0.20748   0.73543  -0.01359
C          C       0.60651   0.18481   0.62627   0.31356
C          C       0.57283   0.28492   0.48360   0.22330
C          C       0.43530   0.80538   0.26722   0.00526
C          C       0.38772   0.83199   0.38026   0.43915
C          C       0.42375   0.73245   0.52140   0.24617
N          N       0.27115   0.15527   0.11812  -0.34240
N          N       0.68390   0.15051   0.11050  -0.33972
N          N       0.73318   0.60171   0.88233  -0.34587
N          N       0.32011   0.60681   0.89192  -0.34655
N          N       0.73771   0.85557   0.88555  -0.34546
N          N       0.32507   0.86058   0.89668  -0.34003
N          N       0.27601   0.41206   0.12190  -0.34933
N          N       0.68879   0.40734   0.11418  -0.34649
N          N       0.50349   0.25026   0.95276  -0.24554
N          N       0.63419   0.27982   0.57463  -0.20220
N          N       0.47854   0.30379   0.28590  -0.19286
N          N       0.50881   0.76205   0.05314  -0.21228
N          N       0.36514   0.73790   0.42904  -0.27649
N          N       0.52458   0.70941   0.71619  -0.19248
O          O       0.63240   0.08557   0.56865  -0.30822
O          O       0.34944   0.93110   0.42795  -0.39185

