data_crystal

_audit_creation_method 'AiiDA-DDEC plugin'

_cell_length_a         4.62078
_cell_length_b         7.33881
_cell_length_c         8.22426

_cell_angle_alpha     87.11515
_cell_angle_beta     84.38181
_cell_angle_gamma     114.91790

_symmetry_space_group_name_Hall 'P 1'
_symmetry_space_group_name_H-M  'P 1'

loop_
_symmetry_equiv_pos_as_xyz
 'x,y,z'

loop_
_atom_site_label
_atom_site_type_symbol
_atom_site_fract_x
_atom_site_fract_y
_atom_site_fract_z
_atom_site_charge
Co         Co      0.97272   0.99250   0.48133   1.10081
Co         Co      0.47534   0.48483   0.47367   1.02425
H          H       0.58671   0.69003   0.91843   0.13696
H          H       0.35017   0.27033   0.03892   0.13820
C          C       0.60257   0.75566   0.23201   0.58043
C          C       0.58821   0.89508   0.09607  -0.00865
C          C       0.52741   0.06375   0.12882  -0.06248
C          C       0.58326   0.16281   0.28416   0.59712
C          C       0.53451   0.81814   0.94356  -0.08905
C          C       0.35079   0.20902   0.72340   0.58283
C          C       0.34994   0.06461   0.85834  -0.00976
C          C       0.41154   0.89665   0.82566  -0.06724
C          C       0.35733   0.80547   0.66765   0.59294
C          C       0.40111   0.14214   0.01126  -0.09082
O          O       0.84596   0.78622   0.30783  -0.60438
O          O       0.34003   0.59720   0.27486  -0.47761
O          O       0.75588   0.12948   0.38214  -0.56198
O          O       0.43963   0.27618   0.31266  -0.56624
O          O       0.11092   0.18762   0.65186  -0.60740
O          O       0.62077   0.36141   0.68882  -0.47708
O          O       0.19504   0.84520   0.56831  -0.54871
O          O       0.50772   0.69310   0.63327  -0.58213

