data_crystal

_audit_creation_method 'AiiDA-DDEC plugin'

_cell_length_a         4.10197
_cell_length_b        12.55304
_cell_length_c        12.70480

_cell_angle_alpha     82.37536
_cell_angle_beta     57.63391
_cell_angle_gamma     58.02918

_symmetry_space_group_name_Hall 'P 1'
_symmetry_space_group_name_H-M  'P 1'

loop_
_symmetry_equiv_pos_as_xyz
 'x,y,z'

loop_
_atom_site_label
_atom_site_type_symbol
_atom_site_fract_x
_atom_site_fract_y
_atom_site_fract_z
_atom_site_charge
Zn         Zn      0.50599   0.99137   0.99152   1.05909
Zn         Zn      0.72989   0.51865   0.51003   1.04674
H          H       0.64535   0.17680   0.64482   0.10767
H          H       0.69007   0.83367   0.30419   0.11150
H          H       0.12944   0.33722   0.17357   0.13263
H          H       0.60234   0.66376   0.84481   0.14465
C          C       0.59421   0.18488   0.82292   0.51826
C          C       0.68880   0.80513   0.14175   0.48738
C          C       0.08272   0.17200   0.21830   0.50836
C          C       0.67918   0.82372   0.78981   0.49131
C          C       0.61112   0.67625   0.31558   0.47966
C          C       0.54190   0.35755   0.68490   0.52772
C          C       0.19202   0.28245   0.33315   0.50963
C          C       0.55820   0.71056   0.68141   0.49452
C          C       0.44770   0.24907   0.72953  -0.32010
C          C       0.95238   0.28807   0.77704   0.45551
C          C       0.80593   0.75430   0.24009  -0.29578
C          C       0.36206   0.68382   0.18587   0.30694
C          C       0.13299   0.27000   0.23638  -0.30953
C          C       0.15473   0.10679   0.38472   0.23171
C          C       0.60972   0.72757   0.77844  -0.31082
C          C       0.63968   0.87737   0.61708   0.23969
S          S       0.43123   0.49327   0.01452   0.05784
S          S       0.76593   0.53733   0.05432   0.33572
S          S       0.16717   0.99708   0.48492   0.29724
S          S       0.65878   0.97763   0.50871   0.28855
N          N       0.79178   0.22111   0.85505  -0.47346
N          N       0.48881   0.76569   0.11763  -0.44913
N          N       0.05886   0.09201   0.30464  -0.40738
N          N       0.72231   0.89823   0.69840  -0.39660
N          N       0.44528   0.63320   0.27943  -0.45695
N          N       0.77421   0.37391   0.71955  -0.45988
N          N       0.23797   0.18900   0.40571  -0.41433
N          N       0.54348   0.79671   0.60166  -0.39994
O          O       0.54464   0.09327   0.85687  -0.48663
O          O       0.78180   0.88739   0.08768  -0.50282
O          O       0.03217   0.15862   0.13046  -0.54513
O          O       0.73594   0.83756   0.87569  -0.53309
O          O       0.63339   0.65542   0.41332  -0.52142
O          O       0.44282   0.41708   0.60854  -0.47403
O          O       0.23617   0.37123   0.35117  -0.54683
O          O       0.50035   0.62319   0.66956  -0.52849

