data_crystal

_audit_creation_method 'AiiDA-DDEC plugin'

_cell_length_a         9.39565
_cell_length_b         9.98166
_cell_length_c        10.25452

_cell_angle_alpha     71.72053
_cell_angle_beta     89.60262
_cell_angle_gamma     82.95278

_symmetry_space_group_name_Hall 'P 1'
_symmetry_space_group_name_H-M  'P 1'

loop_
_symmetry_equiv_pos_as_xyz
 'x,y,z'

loop_
_atom_site_label
_atom_site_type_symbol
_atom_site_fract_x
_atom_site_fract_y
_atom_site_fract_z
_atom_site_charge
Gd         Gd      0.01644   0.16799   0.75100   2.00937
Gd         Gd      0.00722   0.82988   0.27494   2.00850
H          H       0.65275   0.78665   0.17542   0.11666
H          H       0.62881   0.16327   0.82443   0.10344
H          H       0.57628   0.43802   0.75723   0.12708
H          H       0.69955   0.43975   0.35191   0.12968
H          H       0.30485   0.85826   0.54456   0.12076
H          H       0.48958   0.21915   0.57887   0.10202
H          H       0.36699   0.21367   0.85465   0.11689
H          H       0.39180   0.83929   0.20840   0.10377
H          H       0.44890   0.55154   0.25935   0.12787
H          H       0.32471   0.54692   0.66507   0.12994
H          H       0.72049   0.13671   0.48538   0.12136
H          H       0.53570   0.77502   0.45167   0.10415
C          C       0.65707   0.97136   0.99694  -0.04543
C          C       0.58988   0.87999   0.10575  -0.09373
C          C       0.57580   0.09231   0.90734  -0.08070
C          C       0.81396   0.94336   0.97676   0.67001
C          C       0.65030   0.43369   0.55941  -0.01451
C          C       0.54613   0.46324   0.64908  -0.09394
C          C       0.61638   0.46390   0.41886  -0.08285
C          C       0.79473   0.36198   0.61693   0.55856
C          C       0.38483   0.04363   0.56634  -0.01745
C          C       0.39632   0.91801   0.53092  -0.09500
C          C       0.50136   0.12250   0.55034  -0.09332
C          C       0.24972   0.09246   0.62151   0.57135
C          C       0.36246   0.03010   0.03448  -0.04857
C          C       0.42963   0.12141   0.92551  -0.09244
C          C       0.44411   0.90983   0.12471  -0.07833
C          C       0.20518   0.05837   0.05268   0.67195
C          C       0.37490   0.55572   0.45740  -0.01029
C          C       0.47847   0.52516   0.36776  -0.09209
C          C       0.40800   0.52305   0.59835  -0.08177
C          C       0.23212   0.63314   0.40036   0.55814
C          C       0.64033   0.95118   0.46346  -0.01733
C          C       0.62915   0.07679   0.49893  -0.09651
C          C       0.52407   0.87199   0.47970  -0.09331
C          C       0.77494   0.90312   0.40691   0.57084
O          O       0.86475   0.01293   0.86323  -0.67547
O          O       0.89241   0.85223   0.07375  -0.68228
O          O       0.87545   0.29665   0.54817  -0.62335
O          O       0.83483   0.35839   0.73806  -0.63776
O          O       0.23604   0.21282   0.64477  -0.64959
O          O       0.14738   0.01378   0.64894  -0.62802
O          O       0.15246   0.99141   0.16599  -0.67330
O          O       0.12814   0.14786   0.95374  -0.68287
O          O       0.15262   0.69481   0.47288  -0.62656
O          O       0.19433   0.64682   0.27586  -0.64025
O          O       0.78930   0.78219   0.38479  -0.64950
O          O       0.87554   0.98348   0.37738  -0.62579

