data_crystal

_audit_creation_method 'AiiDA-DDEC plugin'

_cell_length_a         6.61474
_cell_length_b        11.12652
_cell_length_c        11.12313

_cell_angle_alpha     72.26465
_cell_angle_beta     71.73202
_cell_angle_gamma     71.91564

_symmetry_space_group_name_Hall 'P 1'
_symmetry_space_group_name_H-M  'P 1'

loop_
_symmetry_equiv_pos_as_xyz
 'x,y,z'

loop_
_atom_site_label
_atom_site_type_symbol
_atom_site_fract_x
_atom_site_fract_y
_atom_site_fract_z
_atom_site_charge
Al         Al      0.25078   0.26401   0.74054   1.68213
Al         Al      0.75053   0.26566   0.73918   1.68325
H          H       0.02096   0.16413   0.37591   0.12593
H          H       0.13143   0.15679   0.13957   0.12507
H          H       0.02007   0.38488   0.59042   0.44208
H          H       0.51955   0.11384   0.85811   0.44283
H          H       0.97501   0.62950   0.83291   0.12882
H          H       0.86503   0.86549   0.83841   0.11855
H          H       0.36922   0.37198   0.33783   0.12059
H          H       0.47920   0.36314   0.10249   0.12756
H          H       0.63306   0.66450   0.63448   0.12513
H          H       0.52219   0.90090   0.63986   0.12577
C          C       0.90445   0.20766   0.31510  -0.09900
C          C       0.96528   0.20291   0.18453  -0.09617
C          C       0.09304   0.68970   0.79095  -0.09965
C          C       0.03220   0.82043   0.79418  -0.09606
C          C       0.53522   0.32510   0.29372  -0.09833
C          C       0.59585   0.32011   0.16328  -0.09783
C          C       0.46553   0.70963   0.67850  -0.09724
C          C       0.40445   0.84041   0.68176  -0.10002
C          C       0.81129   0.25897   0.10828  -0.04160
C          C       0.68923   0.26928   0.37006  -0.04396
C          C       0.62417   0.27485   0.50971   0.63321
C          C       0.18801   0.89608   0.74056  -0.04301
C          C       0.31052   0.63356   0.73357  -0.04042
C          C       0.37645   0.49319   0.73157   0.63061
C          C       0.87678   0.25504   0.96827   0.63323
C          C       0.12398   0.03537   0.74665   0.63227
O          O       0.41900   0.30608   0.56215  -0.61402
O          O       0.72301   0.28281   0.91102  -0.58838
O          O       0.58152   0.44168   0.69990  -0.60460
O          O       0.27916   0.09116   0.72203  -0.59926
O          O       0.77884   0.24955   0.56580  -0.59944
O          O       0.08166   0.22276   0.91644  -0.60510
O          O       0.22321   0.43517   0.76014  -0.58761
O          O       0.91904   0.08762   0.77821  -0.61357
O          O       0.00165   0.32806   0.67634  -1.00561
O          O       0.50172   0.20042   0.80260  -1.00616

