data_crystal

_audit_creation_method 'AiiDA-DDEC plugin'

_cell_length_a         7.06829
_cell_length_b         9.89153
_cell_length_c        12.79074

_cell_angle_alpha     84.29500
_cell_angle_beta     73.96882
_cell_angle_gamma     68.96990

_symmetry_space_group_name_Hall 'P 1'
_symmetry_space_group_name_H-M  'P 1'

loop_
_symmetry_equiv_pos_as_xyz
 'x,y,z'

loop_
_atom_site_label
_atom_site_type_symbol
_atom_site_fract_x
_atom_site_fract_y
_atom_site_fract_z
_atom_site_charge
Cd         Cd      0.37508   0.24989   0.25022   1.01852
Cd         Cd      0.62492   0.75009   0.74978   1.01852
H          H       0.87372   0.39627   0.04521   0.14795
H          H       0.11202   0.35115   0.94177   0.14609
H          H       0.08133   0.10360   0.04513   0.14830
H          H       0.94610   0.14892   0.94181   0.14606
H          H       0.73006   0.39579   0.45466   0.14894
H          H       0.53705   0.35136   0.55858   0.14597
H          H       0.81504   0.10406   0.45470   0.14873
H          H       0.90463   0.14879   0.55829   0.14604
H          H       0.12628   0.60372   0.95479   0.14786
H          H       0.88797   0.64884   0.05823   0.14623
H          H       0.91867   0.89640   0.95487   0.14832
H          H       0.05390   0.85107   0.05819   0.14613
H          H       0.26995   0.60421   0.54532   0.14908
H          H       0.46296   0.64865   0.44140   0.14586
H          H       0.18496   0.89594   0.54530   0.14871
H          H       0.09535   0.85121   0.44171   0.14584
C          C       0.13650   0.37277   0.10217   0.59370
C          C       0.02067   0.42034   0.01341  -0.26193
C          C       0.76161   0.12708   0.10223   0.59474
C          C       0.96599   0.07963   0.01343  -0.26247
C          C       0.48984   0.37274   0.39845   0.59387
C          C       0.55890   0.42028   0.48674  -0.26272
C          C       0.11164   0.12700   0.39811   0.59476
C          C       0.95431   0.07968   0.48660  -0.26229
C          C       0.86350   0.62723   0.89783   0.59368
C          C       0.97932   0.57966   0.98659  -0.26188
C          C       0.23839   0.87291   0.89777   0.59489
C          C       0.03401   0.92036   0.98657  -0.26251
C          C       0.51017   0.62727   0.60153   0.59389
C          C       0.44111   0.57972   0.51325  -0.26264
C          C       0.88835   0.87300   0.60189   0.59467
C          C       0.04568   0.92032   0.51340  -0.26232
O          O       0.22333   0.23607   0.11564  -0.46052
O          O       0.27208   0.03391   0.34163  -0.42032
O          O       0.66140   0.26376   0.11584  -0.46116
O          O       0.38692   0.46559   0.34137  -0.41960
O          O       0.54111   0.23606   0.38456  -0.46106
O          O       0.69579   0.03421   0.15984  -0.42044
O          O       0.07385   0.26365   0.38359  -0.46098
O          O       0.14454   0.46561   0.15984  -0.42014
O          O       0.77665   0.76392   0.88436  -0.46029
O          O       0.72792   0.96609   0.65837  -0.41997
O          O       0.33860   0.73623   0.88416  -0.46138
O          O       0.61306   0.53442   0.65862  -0.41969
O          O       0.45891   0.76395   0.61542  -0.46096
O          O       0.30421   0.96579   0.84016  -0.42052
O          O       0.92615   0.73635   0.61642  -0.46120
O          O       0.85545   0.53438   0.84017  -0.42037

