data_crystal

_audit_creation_method 'AiiDA-DDEC plugin'

_cell_length_a         9.57644
_cell_length_b         9.50695
_cell_length_c        12.69746

_cell_angle_alpha     62.22917
_cell_angle_beta     57.03589
_cell_angle_gamma     49.53040

_symmetry_space_group_name_Hall 'P 1'
_symmetry_space_group_name_H-M  'P 1'

loop_
_symmetry_equiv_pos_as_xyz
 'x,y,z'

loop_
_atom_site_label
_atom_site_type_symbol
_atom_site_fract_x
_atom_site_fract_y
_atom_site_fract_z
_atom_site_charge
Cd         Cd      0.05738   0.19032   0.29395   1.09007
Cd         Cd      0.08941   0.82929   0.58727   1.09456
Cd         Cd      0.95588   0.56642   0.01866   1.12298
H          H       0.75380   0.94149   0.13486   0.15906
H          H       0.02410   0.94140   0.16211   0.15613
H          H       0.08889   0.43149   0.40312   0.16053
H          H       0.35413   0.38962   0.46066   0.16233
H          H       0.69440   0.21679   0.89401   0.17836
H          H       0.75844   0.38397   0.97486   0.15985
H          H       0.37891   0.92508   0.64618   0.16448
H          H       0.45110   0.11190   0.70729   0.19004
C          C       0.43374   0.92767   0.37537   0.55559
C          C       0.61896   0.91302   0.34237   0.12959
C          C       0.75779   0.92884   0.22232  -0.15369
C          C       0.89236   0.92542   0.24052  -0.15985
C          C       0.82464   0.91100   0.37168   0.12627
C          C       0.90511   0.89638   0.44684   0.50751
C          C       0.21989   0.46167   0.12904   0.49473
C          C       0.30336   0.43190   0.21203   0.09789
C          C       0.22924   0.42091   0.34168  -0.14552
C          C       0.36751   0.39314   0.37130  -0.15105
C          C       0.51822   0.39624   0.25667   0.11053
C          C       0.68455   0.38953   0.23144   0.54118
C          C       0.91193   0.19383   0.61899   0.50261
C          C       0.89479   0.27595   0.70647   0.16711
C          C       0.78417   0.27540   0.83991  -0.12066
C          C       0.81534   0.36219   0.87775  -0.14314
C          C       0.93862   0.42199   0.76802   0.15492
C          C      -0.00051   0.54188   0.75048   0.52606
C          C       0.10280   0.82664   0.84714   0.53826
C          C       0.19316   0.91439   0.83938   0.14016
C          C       0.32791   0.95811   0.73127  -0.14183
C          C       0.35493   0.05786   0.76564  -0.10570
C          C       0.23717   0.06010   0.89972   0.16579
C          C       0.20215   0.14813   0.98835   0.52058
O          O       0.36536   0.84228   0.47592  -0.50630
O          O       0.37137   0.03153   0.28077  -0.52812
O          O       0.66291   0.89647   0.43563  -0.08783
O          O       0.82094   0.87454   0.56835  -0.50601
O          O       0.06678   0.89533   0.38927  -0.58224
O          O       0.02305   0.47757   0.19826  -0.66403
O          O       0.30210   0.45973   0.01619  -0.40938
O          O       0.48271   0.42210   0.15608  -0.09671
O          O       0.73616   0.32539   0.32732  -0.52685
O          O       0.77403   0.43854   0.11591  -0.56614
O          O       0.84122   0.08961   0.68017  -0.48812
O          O       0.98691   0.24137   0.49896  -0.54170
O          O       0.98886   0.36659   0.66221  -0.08810
O          O       0.89384   0.64041   0.83526  -0.52247
O          O       0.15487   0.52808   0.65342  -0.52267
O          O       0.95521   0.83175   0.94729  -0.55462
O          O       0.18196   0.76882   0.74785  -0.51609
O          O       0.14041   0.97273   0.94536  -0.08947
O          O       0.20225   0.29899   0.93192  -0.49674
O          O       0.17857   0.06947   0.10349  -0.50216

