data_crystal

_audit_creation_method 'AiiDA-DDEC plugin'

_cell_length_a         9.31327
_cell_length_b        10.55192
_cell_length_c        10.55457

_cell_angle_alpha     90.80170
_cell_angle_beta     80.03434
_cell_angle_gamma     79.97299

_symmetry_space_group_name_Hall 'P 1'
_symmetry_space_group_name_H-M  'P 1'

loop_
_symmetry_equiv_pos_as_xyz
 'x,y,z'

loop_
_atom_site_label
_atom_site_type_symbol
_atom_site_fract_x
_atom_site_fract_y
_atom_site_fract_z
_atom_site_charge
Zn         Zn      0.25004   0.97844   0.02149   1.11140
Zn         Zn      0.74996   0.02157   0.97850   1.11127
P          P       0.01275   0.79769   0.04036   1.29947
P          P       0.48748   0.95965   0.20231   1.29955
P          P       0.98725   0.20231   0.95963   1.29954
P          P       0.51252   0.04036   0.79768   1.29963
H          H       0.00021   0.80356   0.24977   0.41862
H          H       0.27309   0.65925   0.96056   0.37046
H          H       0.77306   0.66246   0.07419   0.13572
H          H       0.50048   0.75010   0.19688   0.41871
H          H       0.22708   0.03957   0.34035   0.37028
H          H       0.72708   0.92576   0.33789   0.13586
H          H      -0.00022   0.19644   0.75022   0.41869
H          H       0.72691   0.34075   0.03944   0.37033
H          H       0.22694   0.33754   0.92581   0.13567
H          H       0.49952   0.24990   0.80312   0.41888
H          H       0.77292   0.96043   0.65965   0.37020
H          H       0.27292   0.07425   0.66211   0.13583
C          C       0.14160   0.53747   0.97354   0.31191
C          C       0.01143   0.62972   0.01681  -0.33818
C          C       0.87279   0.59132   0.04188  -0.16105
C          C       0.35844   0.02653   0.46232   0.31139
C          C       0.48870   0.98326   0.37027  -0.33794
C          C       0.62729   0.95810   0.40887  -0.16089
C          C       0.85840   0.46253   0.02645   0.31197
C          C       0.98857   0.37029   0.98319  -0.33824
C          C       0.12721   0.40869   0.95812  -0.16098
C          C       0.64156   0.97349   0.53767   0.31138
C          C       0.51130   0.01674   0.62973  -0.33803
C          C       0.37271   0.04190   0.59112  -0.16095
O          O       0.93833   0.84003   0.18890  -0.63208
O          O       0.17654   0.81286   0.01659  -0.76292
O          O       0.91280   0.87707   0.96075  -0.73894
O          O       0.28085   0.56531   0.94495  -0.45871
O          O       0.56205   0.81103   0.16015  -0.63223
O          O       0.32370   0.98341   0.18697  -0.76304
O          O       0.58730   0.03923   0.12298  -0.73867
O          O       0.21921   0.05515   0.43428  -0.45849
O          O       0.06166   0.15997   0.81109  -0.63206
O          O       0.82346   0.18715   0.98341  -0.76297
O          O       0.08720   0.12293   0.03924  -0.73909
O          O       0.71915   0.43469   0.05505  -0.45880
O          O       0.43795   0.18898   0.83985  -0.63231
O          O       0.67630   0.01659   0.81303  -0.76292
O          O       0.41270   0.96077   0.87701  -0.73892
O          O       0.78079   0.94486   0.56572  -0.45834

