data_crystal

_audit_creation_method 'AiiDA-DDEC plugin'

_cell_length_a         7.99390
_cell_length_b        10.43034
_cell_length_c        12.59792

_cell_angle_alpha     90.09551
_cell_angle_beta     87.56324
_cell_angle_gamma     107.19736

_symmetry_space_group_name_Hall 'P 1'
_symmetry_space_group_name_H-M  'P 1'

loop_
_symmetry_equiv_pos_as_xyz
 'x,y,z'

loop_
_atom_site_label
_atom_site_type_symbol
_atom_site_fract_x
_atom_site_fract_y
_atom_site_fract_z
_atom_site_charge
Zn         Zn      0.48665   0.19397   0.75903   0.92137
Zn         Zn      0.16408   0.12777   0.94934   0.94696
Zn         Zn      0.51336   0.80603   0.24097   0.92142
Zn         Zn      0.83591   0.87223   0.05065   0.94694
H          H       0.99369   0.11802   0.65691   0.12510
H          H       0.87990   0.07253   0.47379   0.12645
H          H       0.58519   0.60371   0.74548   0.13232
H          H       0.43710   0.76068   0.60145   0.13160
H          H       0.78283   0.47804   0.98649   0.12830
H          H       0.41481   0.39630   0.25452   0.13224
H          H       0.77460   0.23621   0.98523   0.12730
H          H       0.21718   0.52195   0.01350   0.12824
H          H       0.56291   0.23932   0.39855   0.13157
H          H       0.22540   0.76379   0.01476   0.12722
H          H       0.00631   0.88198   0.34309   0.12516
H          H       0.12010   0.92747   0.52621   0.12431
C          C       0.12879   0.95905   0.35623  -0.08233
C          C       0.13337   0.01772   0.16489   0.61736
C          C       0.29976   0.59313   0.95607  -0.09588
C          C       0.62203   0.86168   0.71693   0.05644
C          C       0.21732   0.03788   0.26949  -0.05817
C          C       0.70024   0.40687   0.04393  -0.09600
C          C       0.49190   0.36027   0.19495  -0.13072
C          C       0.41120   0.81942   0.88203  -0.07151
C          C       0.58882   0.18058   0.11796  -0.07151
C          C       0.59812   0.87360   0.41755   0.54735
C          C       0.30511   0.72746   0.95688  -0.08612
C          C       0.34500   0.08890   0.47322  -0.01885
C          C       0.50810   0.63973   0.80505  -0.13073
C          C       0.69489   0.27255   0.04312  -0.08603
C          C       0.59901   0.45144   0.12110  -0.02829
C          C       0.44037   0.16197   0.38554  -0.14754
C          C       0.55963   0.83803   0.61446  -0.14751
C          C       0.37798   0.13831   0.28306   0.05633
C          C       0.80896   0.01510   0.54207  -0.08371
C          C       0.51633   0.77586   0.80527   0.07891
C          C       0.87120   0.04094   0.64377  -0.08238
C          C       0.60313   0.04129   0.11778   0.60645
C          C       0.40189   0.12639   0.58244   0.54746
C          C       0.65501   0.91110   0.52678  -0.01894
C          C       0.86664   0.98228   0.83511   0.61757
C          C       0.39687   0.95871   0.88222   0.60649
C          C       0.38842   0.40329   0.87174   0.59796
C          C       0.40099   0.54856   0.87890  -0.02837
C          C       0.48368   0.22414   0.19472   0.07891
C          C       0.78268   0.96211   0.73052  -0.05830
C          C       0.19105   0.98490   0.45793  -0.08227
C          C       0.61160   0.59671   0.12826   0.59792
O          O       0.29312   0.08297   0.66188  -0.54829
O          O       0.03371   0.90035   0.14426  -0.54277
O          O       0.96629   0.09966   0.85573  -0.54289
O          O       0.27162   0.32210   0.93072  -0.53903
O          O       0.83703   0.87891   0.89528  -0.53874
O          O       0.70689   0.91704   0.33812  -0.54837
O          O       0.55588   0.20501   0.59834  -0.52771
O          O       0.44411   0.79499   0.40165  -0.52769
O          O       0.52917   0.05500   0.84765  -0.54902
O          O       0.74885   0.02768   0.08327  -0.55661
O          O       0.47083   0.94500   0.15234  -0.54902
O          O       0.25115   0.97232   0.91673  -0.55665
O          O       0.72839   0.67790   0.06927  -0.53897
O          O       0.49545   0.37176   0.80519  -0.53799
O          O       0.16299   0.12109   0.10472  -0.53871
O          O       0.50458   0.62825   0.19482  -0.53802

