data_crystal

_audit_creation_method 'AiiDA-DDEC plugin'

_cell_length_a         9.00948
_cell_length_b         9.91698
_cell_length_c         9.59577

_cell_angle_alpha     109.45755
_cell_angle_beta     95.62824
_cell_angle_gamma     134.88403

_symmetry_space_group_name_Hall 'P 1'
_symmetry_space_group_name_H-M  'P 1'

loop_
_symmetry_equiv_pos_as_xyz
 'x,y,z'

loop_
_atom_site_label
_atom_site_type_symbol
_atom_site_fract_x
_atom_site_fract_y
_atom_site_fract_z
_atom_site_charge
Cd         Cd      0.76383   0.71964   0.80461   0.45165
Cd         Cd      0.23616   0.28035   0.19539   0.45166
H          H       0.11596   0.70135   0.72838   0.10914
H          H       0.68142   0.36997   0.20982   0.11176
H          H       0.90888   0.18391   0.61848   0.11787
H          H       0.78569   0.63801   0.47440   0.08536
H          H       0.03514   0.79048   0.07685   0.08392
H          H       0.66495   0.11119   0.72465   0.10902
H          H       0.88403   0.29864   0.27162   0.10916
H          H       0.31857   0.63002   0.79019   0.11180
H          H       0.09111   0.81609   0.38153   0.11790
H          H       0.21430   0.36198   0.52561   0.08527
H          H       0.96486   0.20952   0.92316   0.08390
H          H       0.33504   0.88880   0.27535   0.10897
C          C       0.38283   0.04145   0.96486   0.10823
C          C       0.28551   0.83344   0.84684  -0.11444
C          C       0.60045   0.20673   0.11862  -0.11741
C          C       0.94866   0.10415   0.56612  -0.10024
C          C       0.88100   0.79707   0.48513  -0.15000
C          C       0.82697   0.89891   0.55381   0.11847
C          C       0.01865   0.66248   0.04205  -0.10905
C          C       0.82775   0.44367   0.88264   0.10561
C          C       0.81251   0.28206   0.84508  -0.10782
C          C       0.61716   0.95854   0.03514   0.10827
C          C       0.71448   0.16656   0.15317  -0.11450
C          C       0.39954   0.79326   0.88139  -0.11743
C          C       0.05133   0.89585   0.43389  -0.10028
C          C       0.11899   0.20293   0.51488  -0.14994
C          C       0.17302   0.10109   0.44620   0.11851
C          C       0.98134   0.33752   0.95795  -0.10900
C          C       0.17224   0.55633   0.11736   0.10557
C          C       0.18748   0.71794   0.15493  -0.10779
S          S       0.24105   0.09283   0.91748  -0.27918
S          S       0.62017   0.78334   0.62549  -0.26192
S          S       0.61568   0.35823   0.72575  -0.16092
S          S       0.75894   0.90716   0.08253  -0.27910
S          S       0.37982   0.21666   0.37452  -0.26208
S          S       0.38431   0.64176   0.27426  -0.16093

