data_crystal

_audit_creation_method 'AiiDA-DDEC plugin'

_cell_length_a         9.06078
_cell_length_b         9.36642
_cell_length_c         9.97497

_cell_angle_alpha     90.00000
_cell_angle_beta     90.00000
_cell_angle_gamma     118.14192

_symmetry_space_group_name_Hall 'P 1'
_symmetry_space_group_name_H-M  'P 1'

loop_
_symmetry_equiv_pos_as_xyz
 'x,y,z'

loop_
_atom_site_label
_atom_site_type_symbol
_atom_site_fract_x
_atom_site_fract_y
_atom_site_fract_z
_atom_site_charge
Zn         Zn      0.17547   0.93933   0.94514   0.69315
Zn         Zn      0.82454   0.56067   0.44514   0.69306
Zn         Zn      0.82453   0.06067   0.05487   0.69317
Zn         Zn      0.17547   0.43933   0.55486   0.69306
H          H       0.89016   0.79165   0.70011   0.12403
H          H       0.27533   0.68122   0.80276   0.12327
H          H       0.10985   0.70836   0.20011   0.12417
H          H       0.72468   0.81879   0.30275   0.12310
H          H       0.10985   0.20836   0.29989   0.12413
H          H       0.72467   0.31879   0.19724   0.12320
H          H       0.89016   0.29164   0.79989   0.12401
H          H       0.27533   0.18122   0.69724   0.12327
C          C       0.47091   0.91441   0.03021   0.45722
C          C       0.97529   0.74052   0.70162   0.14213
C          C       0.17075   0.68370   0.75242   0.15043
C          C       0.52910   0.58559   0.53020   0.45720
C          C       0.02472   0.75949   0.20161   0.14220
C          C       0.82926   0.81630   0.25242   0.15013
C          C       0.52910   0.08559   0.96979   0.45731
C          C       0.02471   0.25948   0.29839   0.14216
C          C       0.82924   0.31629   0.24759   0.15023
C          C       0.47091   0.41441   0.46980   0.45717
C          C       0.97529   0.24052   0.79839   0.14217
C          C       0.17075   0.18371   0.74758   0.15036
N          N       0.09918   0.77550   0.79203  -0.31301
N          N       0.96967   0.63264   0.61134  -0.18930
N          N       0.09641   0.59660   0.64381  -0.19284
N          N       0.90084   0.72451   0.29203  -0.31301
N          N       0.03034   0.86737   0.11134  -0.18905
N          N       0.90360   0.90341   0.14381  -0.19285
N          N       0.90084   0.22452   0.20797  -0.31301
N          N       0.03034   0.36737   0.38866  -0.18898
N          N       0.90360   0.40341   0.35619  -0.19298
N          N       0.09917   0.27549   0.70797  -0.31308
N          N       0.96966   0.13263   0.88866  -0.18916
N          N       0.09641   0.09659   0.85619  -0.19290
O          O       0.31562   0.81905   0.03259  -0.50018
O          O       0.58435   0.88171   0.07273  -0.49494
O          O       0.68439   0.68095   0.53259  -0.49985
O          O       0.41566   0.61830   0.57273  -0.49510
O          O       0.68439   0.18095   0.96741  -0.50004
O          O       0.41566   0.11829   0.92727  -0.49504
O          O       0.31562   0.31905   0.46741  -0.50009
O          O       0.58435   0.38171   0.42727  -0.49493

