data_crystal

_audit_creation_method 'AiiDA-DDEC plugin'

_cell_length_a         4.26363
_cell_length_b        12.44881
_cell_length_c        12.55942

_cell_angle_alpha     82.27957
_cell_angle_beta     56.32428
_cell_angle_gamma     56.78166

_symmetry_space_group_name_Hall 'P 1'
_symmetry_space_group_name_H-M  'P 1'

loop_
_symmetry_equiv_pos_as_xyz
 'x,y,z'

loop_
_atom_site_label
_atom_site_type_symbol
_atom_site_fract_x
_atom_site_fract_y
_atom_site_fract_z
_atom_site_charge
Mn         Mn      0.02148   0.97953   0.99378   1.25110
Mn         Mn      0.21714   0.51011   0.52149   1.25449
H          H       0.21233   0.29341   0.82236   0.14035
H          H       0.03791   0.67902   0.20911   0.13281
H          H       0.62856   0.16036   0.33630   0.12901
H          H       0.11587   0.84184   0.66570   0.16969
C          C       0.14815   0.13866   0.79572   0.50823
C          C       0.16739   0.82820   0.18785   0.50091
C          C       0.58141   0.21273   0.17305   0.51022
C          C       0.16990   0.78446   0.82894   0.49402
C          C       0.09452   0.70767   0.36358   0.51046
C          C       0.09146   0.31283   0.67290   0.49476
C          C       0.64348   0.33104   0.29028   0.51206
C          C       0.07861   0.67296   0.71378   0.48946
C          C       0.94101   0.16845   0.65455   0.30732
C          C       0.23978   0.23934   0.75407  -0.36047
C          C       0.31236   0.84819   0.33175   0.30711
C          C       0.01018   0.74824   0.26255  -0.35740
C          C       0.59718   0.39055   0.11934   0.25354
C          C       0.61900   0.22772   0.27307  -0.38291
C          C       0.13658   0.60933   0.88195   0.27216
C          C       0.12076   0.77372   0.72924  -0.37542
S          S       0.31174   0.04055   0.49738   0.19476
S          S       0.94142   0.00565   0.45968   0.19652
S          S       0.58923   0.50101   0.01388   0.24058
S          S       0.14977   0.49627   0.98368   0.22384
N          N       0.01850   0.10227   0.74092  -0.43807
N          N       0.28388   0.88574   0.22854  -0.45003
N          N       0.54452   0.30228   0.09733  -0.41732
N          N       0.18847   0.69635   0.90673  -0.43021
N          N       0.22898   0.76208   0.39837  -0.43742
N          N       0.97448   0.27157   0.61635  -0.44864
N          N       0.65840   0.41141   0.20496  -0.41768
N          N       0.07673   0.58919   0.79591  -0.43156
O          O       0.20420   0.08475   0.88605  -0.50213
O          O       0.16681   0.84405   0.08308  -0.53092
O          O       0.56234   0.11627   0.15244  -0.53085
O          O       0.21113   0.87605   0.84608  -0.51219
O          O       0.02696   0.61890   0.41966  -0.50192
O          O       0.10071   0.41698   0.65513  -0.52652
O          O       0.66715   0.35075   0.38514  -0.53166
O          O       0.03157   0.65922   0.62321  -0.51007

