data_crystal

_audit_creation_method 'AiiDA-DDEC plugin'

_cell_length_a         7.97258
_cell_length_b        11.79747
_cell_length_c        12.30458

_cell_angle_alpha     106.94321
_cell_angle_beta     85.28646
_cell_angle_gamma     122.21463

_symmetry_space_group_name_Hall 'P 1'
_symmetry_space_group_name_H-M  'P 1'

loop_
_symmetry_equiv_pos_as_xyz
 'x,y,z'

loop_
_atom_site_label
_atom_site_type_symbol
_atom_site_fract_x
_atom_site_fract_y
_atom_site_fract_z
_atom_site_charge
Mn         Mn      0.96603   0.30139   0.46166   0.96127
Mn         Mn      0.03401   0.69860   0.53832   0.96162
H          H       0.51314   0.85192   0.48222   0.12789
H          H       0.71656   0.88472   0.15296   0.11846
H          H       0.27931   0.48005   0.19778   0.11046
H          H       0.57734   0.68117   0.98999   0.08378
H          H       0.22335   0.41293   0.02655   0.08749
H          H       0.83613   0.20294   0.67582   0.10544
H          H       0.96611   0.25982   0.87432   0.12778
H          H       0.50908   0.61188   0.81307   0.12498
H          H       0.35538   0.54376   0.62087   0.09977
H          H       0.48686   0.14800   0.51771   0.12823
H          H       0.28346   0.11526   0.84705   0.11858
H          H       0.72074   0.51998   0.80221   0.11054
H          H       0.42264   0.31880   0.01000   0.08407
H          H       0.77669   0.58708   0.97342   0.08757
H          H       0.16389   0.79709   0.32418   0.10539
H          H       0.03388   0.74021   0.12569   0.12767
H          H       0.49102   0.38807   0.18689   0.12495
H          H       0.64467   0.45618   0.37910   0.10000
C          C       0.25956   0.56744   0.42062   0.58028
C          C       0.38182   0.65626   0.34594  -0.05510
C          C       0.50718   0.80145   0.39217  -0.10180
C          C       0.62614   0.88294   0.32162  -0.02123
C          C       0.75739   0.03784   0.37158   0.55352
C          C       0.62092   0.81862   0.20544  -0.14242
C          C       0.49819   0.67289   0.15819   0.06953
C          C       0.37755   0.59328   0.22963  -0.14760
C          C       0.51996   0.60522   0.03860  -0.06004
C          C       0.34274   0.45889   0.97242  -0.08130
C          C       0.98322   0.29367   0.71073   0.09532
C          C       0.05794   0.32594   0.82103  -0.18844
C          C       0.25190   0.43985   0.86174   0.13120
C          C       0.35853   0.52086   0.78834  -0.18179
C          C       0.27394   0.48291   0.67915   0.10342
C          C       0.74048   0.43247   0.57939   0.58005
C          C       0.61817   0.34367   0.65406  -0.05464
C          C       0.49273   0.19858   0.60776  -0.10211
C          C       0.37399   0.11706   0.67837  -0.02114
C          C       0.24279   0.96212   0.62844   0.55329
C          C       0.37911   0.18132   0.79454  -0.14220
C          C       0.50173   0.32709   0.84175   0.06947
C          C       0.62247   0.40675   0.77036  -0.14804
C          C       0.48009   0.39475   0.96138  -0.05982
C          C       0.65731   0.54109   0.02753  -0.08126
C          C       0.01679   0.70636   0.28926   0.09527
C          C       0.94208   0.67406   0.17896  -0.18845
C          C       0.74815   0.56013   0.13822   0.13147
C          C       0.64151   0.47914   0.21164  -0.18175
C          C       0.72609   0.51705   0.32082   0.10328
N          N       0.09054   0.36953   0.63892  -0.26995
N          N       0.90947   0.63045   0.36104  -0.26997
O          O       0.20252   0.43783   0.38666  -0.53778
O          O       0.21910   0.62406   0.51641  -0.57387
O          O       0.77583   0.09025   0.48023  -0.56373
O          O       0.84819   0.11687   0.30718  -0.55606
O          O       0.79742   0.56210   0.61323  -0.53849
O          O       0.78090   0.37590   0.48357  -0.57352
O          O       0.22423   0.90975   0.51981  -0.56352
O          O       0.15201   0.88309   0.69284  -0.55605

