data_crystal

_audit_creation_method 'AiiDA-DDEC plugin'

_cell_length_a         4.16872
_cell_length_b         6.60528
_cell_length_c        10.26644

_cell_angle_alpha     106.92577
_cell_angle_beta     101.71584
_cell_angle_gamma     89.99780

_symmetry_space_group_name_Hall 'P 1'
_symmetry_space_group_name_H-M  'P 1'

loop_
_symmetry_equiv_pos_as_xyz
 'x,y,z'

loop_
_atom_site_label
_atom_site_type_symbol
_atom_site_fract_x
_atom_site_fract_y
_atom_site_fract_z
_atom_site_charge
Ni         Ni      0.50693  -0.00004   0.49999   1.03014
Ni         Ni      0.00697   0.50003   0.49996   1.03074
H          H       0.56401   0.08127   0.11101   0.09133
H          H       0.84744   0.11121   0.12924   0.07818
H          H       0.45280   0.41885   0.88894   0.09156
H          H       0.71798   0.38883   0.87066   0.07796
H          H       0.45001   0.91886   0.88891   0.09152
H          H       0.16658   0.88876   0.87067   0.07805
H          H       0.56093   0.58127   0.11100   0.09159
H          H       0.29574   0.61132   0.12923   0.07806
C          C       0.38984   0.24997   0.30263   0.64379
C          C       0.34010   0.12608   0.15413  -0.18776
C          C       0.04905   0.06100   0.07209  -0.00982
C          C       0.08716   0.25005   0.69732   0.64369
C          C       0.18580   0.37397   0.84580  -0.18809
C          C       0.97674   0.43907   0.92782  -0.00960
C          C       0.62414   0.75008   0.69730   0.64400
C          C       0.67389   0.87398   0.84579  -0.18789
C          C       0.96497   0.93904   0.92782  -0.01008
C          C       0.92668   0.74997   0.30263   0.64360
C          C       0.82796   0.62612   0.15412  -0.18796
C          C       0.03698   0.56106   0.07208  -0.01026
O          O       0.64944   0.22181   0.38718  -0.59908
O          O       0.16808   0.37484   0.33290  -0.53195
O          O       0.26228   0.27823   0.61280  -0.59873
O          O       0.83517   0.12514   0.66701  -0.53167
O          O       0.36453   0.77825   0.61274  -0.59888
O          O       0.84587   0.62520   0.66702  -0.53228
O          O       0.75156   0.72171   0.38712  -0.59866
O          O       0.17868   0.87487   0.33295  -0.53151

