data_crystal

_audit_creation_method 'AiiDA-DDEC plugin'

_cell_length_a         9.70690
_cell_length_b        12.24617
_cell_length_c        13.59236

_cell_angle_alpha     64.28808
_cell_angle_beta     82.55911
_cell_angle_gamma     73.27177

_symmetry_space_group_name_Hall 'P 1'
_symmetry_space_group_name_H-M  'P 1'

loop_
_symmetry_equiv_pos_as_xyz
 'x,y,z'

loop_
_atom_site_label
_atom_site_type_symbol
_atom_site_fract_x
_atom_site_fract_y
_atom_site_fract_z
_atom_site_charge
Ce         Ce      0.22895   0.50748   0.50569   1.98933
Ce         Ce      0.76753   0.49464   0.49424   1.98653
H          H       0.69658   0.21091   0.85374   0.12379
H          H       0.25379   0.41337   0.77846   0.09908
H          H       0.19121   0.27008   0.96569   0.07952
H          H       0.47943   0.99288   0.17888   0.13156
H          H       0.91938   0.78748   0.26952   0.11668
H          H       0.99338   0.93151   0.08669   0.07783
H          H       0.95424   0.39548   0.18744   0.13864
H          H       0.15426   0.66003   0.19926   0.12154
H          H       0.18283   0.74044   0.99630   0.08920
H          H       0.30484   0.78807   0.14712   0.12312
H          H       0.74656   0.58544   0.22338   0.10046
H          H       0.81015   0.72811   0.03622   0.07865
H          H       0.52229   0.00294   0.81874   0.13284
H          H       0.08282   0.20969   0.72923   0.11727
H          H       0.00838   0.06772   0.91322   0.07702
H          H       0.04773   0.60024   0.81300   0.13607
H          H       0.84607   0.33595   0.80221   0.12079
H          H       0.80875   0.26145   0.00400   0.08852
C          C       0.51842   0.40339   0.68686   0.66562
C          C       0.53946   0.15513   0.97933   0.17028
C          C       0.58379   0.22923   0.87520  -0.15324
C          C       0.48037   0.32290   0.80025  -0.01167
C          C       0.33669   0.33967   0.83362  -0.15145
C          C       0.30273   0.26083   0.93810   0.09718
C          C       0.63744   0.79422   0.34425   0.59139
C          C       0.64431   0.05324   0.06234   0.16348
C          C       0.59413   0.97749   0.16252  -0.15797
C          C       0.69305   0.88019   0.23897   0.00371
C          C       0.83907   0.86298   0.21218  -0.15000
C          C       0.87990   0.94342   0.11002   0.08030
C          C       0.01000   0.48410   0.32651   0.62313
C          C       0.02669   0.52223   0.03451   0.16182
C          C       0.00620   0.47071   0.14810  -0.15314
C          C       0.04945   0.52248   0.20865  -0.00885
C          C       0.11782   0.61923   0.15460  -0.14268
C          C       0.13466   0.66330   0.04135   0.09193
C          C       0.47962   0.59619   0.31394   0.66722
C          C       0.46174   0.84309   0.02075   0.16789
C          C       0.41740   0.76982   0.12495  -0.15221
C          C       0.51995   0.67535   0.20032  -0.01154
C          C       0.66372   0.65844   0.16822  -0.15356
C          C       0.69818   0.73704   0.06321   0.09456
C          C       0.36226   0.20609   0.65493   0.59605
C          C       0.35701   0.94467   0.93715   0.16731
C          C       0.40749   0.01917   0.83605  -0.16041
C          C       0.30867   0.11739   0.75965   0.00286
C          C       0.16272   0.13435   0.78707  -0.15078
C          C       0.12179   0.05546   0.88974   0.08294
C          C       0.98729   0.51404   0.67339   0.62735
C          C       0.97243   0.47611   0.96588   0.16128
C          C       0.99498   0.52503   0.85253  -0.15215
C          C       0.95031   0.47456   0.79184  -0.01121
C          C       0.88194   0.37774   0.84645  -0.14241
C          C       0.86132   0.33655   0.95935   0.09361
N          N       0.40060   0.17005   0.01024  -0.26857
N          N       0.78550   0.03796   0.03573  -0.29510
N          N       0.08942   0.61700   0.98160  -0.27313
N          N       0.60134   0.82720   0.99016  -0.26720
N          N       0.21563   0.96139   0.96429  -0.29705
N          N       0.90579   0.38374   0.01849  -0.27510
O          O       0.41859   0.47616   0.61808  -0.67752
O          O       0.65086   0.39776   0.66295  -0.64480
O          O       0.73994   0.70064   0.40923  -0.71666
O          O       0.50801   0.80726   0.36430  -0.49841
O          O       0.05911   0.52594   0.38246  -0.70945
O          O       0.91725   0.42036   0.36576  -0.60143
O          O       0.57743   0.52471   0.38443  -0.67815
O          O       0.34712   0.60292   0.33580  -0.64316
O          O       0.25899   0.30166   0.59199  -0.71889
O          O       0.49169   0.19192   0.63359  -0.49785
O          O       0.93994   0.46994   0.61907  -0.70808
O          O       0.07382   0.58263   0.63135  -0.60449

