data_crystal

_audit_creation_method 'AiiDA-DDEC plugin'

_cell_length_a         7.65585
_cell_length_b        13.77198
_cell_length_c        13.55461

_cell_angle_alpha     109.28185
_cell_angle_beta     104.44372
_cell_angle_gamma     79.64364

_symmetry_space_group_name_Hall 'P 1'
_symmetry_space_group_name_H-M  'P 1'

loop_
_symmetry_equiv_pos_as_xyz
 'x,y,z'

loop_
_atom_site_label
_atom_site_type_symbol
_atom_site_fract_x
_atom_site_fract_y
_atom_site_fract_z
_atom_site_charge
Sr         Sr      0.02261   0.40193   0.85040   1.49132
Sr         Sr      0.53111   0.28299   0.82608   1.62388
Sr         Sr      0.98840   0.59396   0.14644   1.49222
Sr         Sr      0.47981   0.71319   0.17063   1.62348
Zn         Zn      0.17443   0.19588   0.24683   0.73377
Zn         Zn      0.83370   0.80009   0.74918   0.73457
H          H       0.68880   0.87414   0.05493   0.11267
H          H       0.30069   0.59608   0.84113   0.13200
H          H       0.58485   0.15841   0.25786   0.12537
H          H       0.32308   0.12098   0.94177   0.11236
H          H       0.26166   0.57226   0.63408   0.10652
H          H       0.66766   0.57386   0.68174   0.07379
H          H       0.39941   0.96560   0.01095   0.12107
H          H       0.17250   0.83573   0.94454   0.08798
H          H       0.61148   0.02925   0.98535   0.12150
H          H       0.83778   0.15943   0.05131   0.08755
H          H       0.42325   0.83675   0.73817   0.12471
H          H       0.81272   0.26099   0.24755   0.12790
H          H       0.74979   0.42274   0.36240   0.10719
H          H       0.34204   0.58189   0.46997   0.13013
H          H       0.34150   0.42137   0.31429   0.07287
H          H       0.66895   0.41311   0.52639   0.12960
H          H       0.70916   0.39897   0.15544   0.13214
H          H       0.19614   0.73371   0.74868   0.12768
C          C       0.58207   0.62648   0.87982  -0.09374
C          C       0.04867   0.25142   0.44575   0.52827
C          C       0.96028   0.90861   0.13138  -0.07444
C          C       0.70167   0.68533   0.86664   0.05106
C          C       0.61247   0.35248   0.16015  -0.06781
C          C       0.74018   0.01587   0.03752  -0.13113
C          C       0.54494   0.21880   0.21859   0.09037
C          C       0.98614   0.80983   0.16173   0.62128
C          C       0.30748   0.31033   0.12961   0.05093
C          C       0.27086   0.97921   0.95876  -0.13051
C          C       0.84704   0.58604   0.33187   0.63214
C          C       0.25369   0.50623   0.56275  -0.07530
C          C       0.75686   0.48890   0.43359  -0.07534
C          C       0.39705   0.64269   0.83624  -0.06705
C          C       0.02617   0.18599   0.83516   0.62111
C          C       0.46362   0.77640   0.77749   0.09103
C          C       0.70875   0.48396   0.52383  -0.10902
C          C       0.33792   0.71874   0.78497  -0.09681
C          C       0.72273   0.02074   0.79311   0.58926
C          C       0.90510   0.66236   0.89578   0.56410
C          C       0.30155   0.51119   0.47244  -0.11076
C          C       0.16250   0.40942   0.66441   0.62954
C          C       0.78558   0.92937   0.07270  -0.03463
C          C       0.10415   0.33357   0.10038   0.56288
C          C       0.64559   0.54408   0.93502   0.64515
C          C       0.22600   0.06586   0.92380  -0.03401
C          C       0.16699   0.33604   0.46504   0.07480
C          C       0.08426   0.98192   0.15652   0.09921
C          C       0.28827   0.97571   0.20431   0.59025
C          C       0.84182   0.65950   0.53108   0.07504
C          C       0.14505   0.90773   0.92440   0.09980
C          C       0.29464   0.42310   0.38420   0.10737
C          C       0.92702   0.01384   0.83994   0.09888
C          C       0.42753   0.36903   0.11659  -0.09158
C          C       0.36479   0.45172   0.06174   0.64382
C          C       0.67107   0.27624   0.21119  -0.09696
C          C       0.05143   0.08698   0.86516  -0.07366
C          C       0.95942   0.74439   0.55023   0.52802
C          C       0.86563   0.08752   0.07165   0.10136
C          C       0.71472   0.57220   0.61192   0.10600
C          C       0.19403   0.41569   0.56186  -0.06051
C          C       0.81564   0.57966   0.43439  -0.06216
N          N       0.64178   0.75873   0.81642  -0.23633
N          N       0.02898   0.07205   0.13200  -0.24926
N          N       0.36685   0.23680   0.17969  -0.23696
N          N       0.22519   0.33871   0.37979  -0.24816
N          N       0.78350   0.65681   0.61629  -0.24891
N          N       0.98175   0.92353   0.86413  -0.24853
O          O       0.73386   0.64636   0.28531  -0.73328
O          O       0.32941   0.54390   0.12003  -0.69377
O          O       0.03070   0.74172   0.47623  -0.50447
O          O       0.83999   0.77406   0.15581  -0.65138
O          O       0.27606   0.34944   0.71128  -0.73288
O          O       0.02202   0.18822   0.34949  -0.55076
O          O       0.62818   0.10653   0.82433  -0.67557
O          O       0.35038   0.05994   0.26275  -0.50647
O          O       0.97056   0.52416   0.28994  -0.61196
O          O       0.14333   0.76241   0.18606  -0.69320
O          O       0.96555   0.59753   0.94977  -0.69088
O          O       0.35905   0.42454   0.96172  -0.67823
O          O       0.98563   0.80779   0.64640  -0.55070
O          O       0.04450   0.39879   0.04677  -0.69125
O          O       0.65144   0.57150   0.03503  -0.67852
O          O       0.86918   0.23324   0.81008  -0.69164
O          O       0.03848   0.47109   0.70602  -0.61019
O          O       0.00835   0.29163   0.13417  -0.50046
O          O       0.00017   0.70420   0.86141  -0.50182
O          O       0.38426   0.89034   0.17357  -0.67514
O          O       0.65885   0.93684   0.73524  -0.50600
O          O       0.17263   0.22204   0.84208  -0.65270
O          O       0.68157   0.45185   0.87702  -0.69440
O          O       0.97728   0.25413   0.51972  -0.50468

