data_crystal

_audit_creation_method 'AiiDA-DDEC plugin'

_cell_length_a         5.28038
_cell_length_b        10.99410
_cell_length_c        11.58990

_cell_angle_alpha     96.05475
_cell_angle_beta     90.00889
_cell_angle_gamma     103.87083

_symmetry_space_group_name_Hall 'P 1'
_symmetry_space_group_name_H-M  'P 1'

loop_
_symmetry_equiv_pos_as_xyz
 'x,y,z'

loop_
_atom_site_label
_atom_site_type_symbol
_atom_site_fract_x
_atom_site_fract_y
_atom_site_fract_z
_atom_site_charge
Co         Co      0.54952   0.62669   0.14244   0.75587
Co         Co      0.92849   0.37851   0.85788   0.75442
H          H       0.70966   0.88029   0.55265   0.11194
H          H       0.65947   0.85816   0.92140   0.12275
H          H       0.22140   0.55088   0.68571   0.10312
H          H       0.56785   0.79723   0.38606   0.09669
H          H       0.19003   0.41613   0.28617   0.12628
H          H       0.19584   0.46076   0.52601   0.12351
H          H       0.63764   0.09710   0.87417   0.10796
H          H       0.36340   0.23787   0.72420   0.10648
H          H       0.19805   0.97819   0.65567   0.13024
H          H       0.83218   0.12490   0.44771   0.11199
H          H       0.80376   0.14703   0.07898   0.12300
H          H       0.67222   0.45427   0.31469   0.10302
H          H       0.77548   0.20810   0.61424   0.09642
H          H       0.77729   0.58904   0.71441   0.12574
H          H       0.73695   0.54442   0.47458   0.12304
H          H       0.54179   0.90846   0.12620   0.10864
H          H       0.12528   0.76628   0.27594   0.10715
H          H       0.22135   0.02600   0.34461   0.12992
C          C       0.44580   0.70996   0.60609   0.16836
C          C       0.62486   0.82882   0.62366  -0.34698
C          C       0.69399   0.87922   0.73933   0.16455
C          C       0.59351   0.81843   0.83368  -0.21891
C          C       0.41632   0.69792   0.81501  -0.03357
C          C       0.34571   0.64547   0.69961  -0.20694
C          C       0.46325   0.70076   0.39030   0.05644
C          C       0.26145   0.50324   0.34194  -0.03658
C          C       0.25692   0.52460   0.46106  -0.10819
C          C       0.81240   0.10246   0.82435   0.06813
C          C       0.18786   0.17027   0.74436  -0.04717
C          C       0.10740   0.04274   0.70823  -0.11686
C          C       0.33633   0.62499   0.91264   0.53441
C          C       0.73843   0.29527   0.39428   0.16737
C          C       0.79873   0.17638   0.37670  -0.34757
C          C       0.81716   0.12593   0.26102   0.16408
C          C       0.77753   0.18678   0.16669  -0.21952
C          C       0.72046   0.30727   0.18531  -0.03428
C          C       0.70221   0.35970   0.30075  -0.20765
C          C       0.76677   0.30454   0.61007   0.05656
C          C       0.76173   0.50195   0.65859  -0.03578
C          C       0.73513   0.48061   0.53949  -0.10924
C          C       0.71101   0.90272   0.17598   0.06608
C          C       0.01792   0.83418   0.25585  -0.04955
C          C       0.06587   0.96174   0.29202  -0.11665
C          C       0.71319   0.38005   0.08755   0.53553
N          N       0.38058   0.65104   0.49156   0.01881
N          N       0.39303   0.61338   0.29847  -0.30741
N          N       0.86913   0.00132   0.75912   0.02804
N          N       0.00260   0.20626   0.81550  -0.28295
N          N       0.73275   0.35421   0.50888   0.02089
N          N       0.78412   0.39188   0.70196  -0.30676
N          N       0.86949   0.00363   0.24120   0.02995
N          N       0.79661   0.79863   0.18475  -0.28143
O          O       0.38857   0.68396   0.01568  -0.55352
O          O       0.24146   0.50450   0.89443  -0.56261
O          O       0.71032   0.32132   0.98460  -0.55380
O          O       0.73478   0.50025   0.10552  -0.56343

