data_crystal

_audit_creation_method 'AiiDA-DDEC plugin'

_cell_length_a         4.58991
_cell_length_b         9.93126
_cell_length_c        11.98150

_cell_angle_alpha     90.63998
_cell_angle_beta     84.45982
_cell_angle_gamma     89.63675

_symmetry_space_group_name_Hall 'P 1'
_symmetry_space_group_name_H-M  'P 1'

loop_
_symmetry_equiv_pos_as_xyz
 'x,y,z'

loop_
_atom_site_label
_atom_site_type_symbol
_atom_site_fract_x
_atom_site_fract_y
_atom_site_fract_z
_atom_site_charge
Cu         Cu      0.55096   0.23590   0.73114   1.00676
Cu         Cu      0.14718   0.44730   0.61073   0.95552
Cu         Cu      0.03852   0.75733   0.23582   0.99583
Cu         Cu      0.64874   0.54827   0.11069   0.95012
H          H       0.46937   0.79782   0.72095   0.13868
H          H       0.04373   0.52532   0.87282   0.12609
H          H       0.10645   0.95384   0.92795   0.14005
H          H       0.97083   0.19704   0.21890   0.13945
H          H       0.54759   0.46973   0.37026   0.12499
H          H       0.60053   0.04282   0.42907   0.14000
C          C       0.77669   0.88881   0.82451  -0.03072
C          C       0.63838   0.77986   0.77633  -0.07809
C          C       0.74805   0.64880   0.78983  -0.05553
C          C       0.97739   0.62746   0.85551  -0.08156
C          C       0.11346   0.73723   0.90452  -0.01908
C          C       0.00689   0.86827   0.88956  -0.03450
C          C       0.67467   0.02517   0.80164   0.54651
C          C       0.60145   0.53418   0.74050   0.56915
C          C       0.31956   0.70941   0.98995   0.53529
C          C       0.27535   0.10692   0.32363  -0.02969
C          C       0.13952   0.21553   0.27441  -0.07693
C          C       0.25090   0.34617   0.28743  -0.05551
C          C       0.48109   0.36757   0.35284  -0.07688
C          C       0.61603   0.25817   0.40223  -0.02266
C          C       0.50560   0.12765   0.38863  -0.03488
C          C       0.16741   0.97081   0.30323   0.54615
C          C       0.10192   0.46073   0.23966   0.56885
C          C       0.81877   0.28650   0.48905   0.53967
O          O       0.45559   0.03975   0.74287  -0.48071
O          O       0.80193   0.13185   0.83300  -0.51936
O          O       0.71290   0.41588   0.74955  -0.59352
O          O       0.30351   0.27950   0.62539  -0.63741
O          O       0.37890   0.56379   0.68853  -0.51993
O          O       0.40247   0.58430   0.99626  -0.56172
O          O       0.39948   0.80275   0.05184  -0.39307
O          O       0.94775   0.95624   0.24488  -0.47596
O          O       0.28968   0.86390   0.33664  -0.52146
O          O       0.20832   0.57925   0.25180  -0.59165
O          O       0.80123   0.71661   0.12630  -0.64151
O          O       0.88069   0.43117   0.18697  -0.51839
O          O       0.90986   0.41015   0.49356  -0.56009
O          O       0.88672   0.19529   0.55436  -0.41231

