data_crystal

_audit_creation_method 'AiiDA-DDEC plugin'

_cell_length_a         6.72383
_cell_length_b        10.66510
_cell_length_c        10.66429

_cell_angle_alpha     72.48412
_cell_angle_beta     71.61667
_cell_angle_gamma     71.62961

_symmetry_space_group_name_Hall 'P 1'
_symmetry_space_group_name_H-M  'P 1'

loop_
_symmetry_equiv_pos_as_xyz
 'x,y,z'

loop_
_atom_site_label
_atom_site_type_symbol
_atom_site_fract_x
_atom_site_fract_y
_atom_site_fract_z
_atom_site_charge
Ni         Ni     -0.00032   0.82232   0.17612   1.02832
Ni         Ni      0.49987   0.32232   0.67617   1.02863
H          H       0.23267   0.68289   0.81523   0.14234
H          H       0.89515   0.03293   0.46547   0.12687
H          H       0.76703   0.18299   0.31530   0.14241
H          H       0.10378   0.53316   0.96522   0.12667
C          C       0.02832   0.88361   0.76837  -0.01687
C          C       0.93568   0.98364   0.66805   0.01466
C          C       0.96652   0.90697   0.90923   0.53863
C          C       0.78950   0.11850   0.68680   0.53457
C          C       0.96994   0.23038   0.11415  -0.01614
C          C       0.06246   0.33081   0.01414   0.01501
C          C       0.03076   0.08981   0.09024   0.53861
C          C       0.20868   0.31228   0.87919   0.53262
C          C       0.81734   0.38378   0.26828  -0.01541
C          C       0.91020   0.48383   0.16790   0.01413
C          C       0.71487   0.40727   0.40909   0.53733
C          C       0.90304   0.61863   0.18666   0.53654
C          C       0.18322   0.73024   0.61419  -0.01617
C          C       0.09009   0.83063   0.51426   0.01618
C          C       0.28702   0.58970   0.59025   0.53707
C          C       0.09744   0.81213   0.37930   0.53516
C          C       0.15556   0.75860   0.73958  -0.09257
C          C       0.97111   0.95685   0.54150  -0.11151
C          C       0.84393   0.25874   0.23957  -0.09308
C          C       0.02796   0.45706   0.04132  -0.11080
O          O       0.09696   0.83459   0.98641  -0.46857
O          O       0.79290   0.99021   0.94185  -0.31482
O          O       0.58614   0.13106   0.69946  -0.41542
O          O       0.85712   0.22001   0.67269  -0.41917
O          O       0.90175   0.01206   0.16392  -0.46979
O          O       0.20250   0.05794   0.00521  -0.31441
O          O       0.41219   0.29871   0.86733  -0.41469
O          O       0.14176   0.32738   0.77716  -0.41819
O          O       0.58026   0.33448   0.48649  -0.46878
O          O       0.77186   0.49103   0.44142  -0.31472
O          O       0.08131   0.63105   0.19930  -0.41619
O          O       0.74822   0.72024   0.17254  -0.41997
O          O       0.42029   0.51207   0.66384  -0.46926
O          O       0.23214   0.55769   0.50535  -0.31356
O          O       0.91941   0.79862   0.36734  -0.41659
O          O       0.25143   0.82718   0.27732  -0.41907

