data_crystal

_audit_creation_method 'AiiDA-DDEC plugin'

_cell_length_a         7.60110
_cell_length_b         6.31570
_cell_length_c        12.14106

_cell_angle_alpha     106.16869
_cell_angle_beta     110.18380
_cell_angle_gamma     85.97385

_symmetry_space_group_name_Hall 'P 1'
_symmetry_space_group_name_H-M  'P 1'

loop_
_symmetry_equiv_pos_as_xyz
 'x,y,z'

loop_
_atom_site_label
_atom_site_type_symbol
_atom_site_fract_x
_atom_site_fract_y
_atom_site_fract_z
_atom_site_charge
Cu         Cu      0.90763   0.96442   0.79827   0.83117
Cu         Cu      0.41473   0.85425   0.79842   0.82987
H          H       0.20589   0.45426   0.36007   0.15411
H          H       0.11466   0.90069   0.33016   0.15524
H          H       0.70194   0.94498   0.37208   0.15343
H          H       0.63093   0.42978   0.34768   0.15557
C          C       0.99509   0.34665   0.18350   0.30843
C          C       0.05778   0.41688   0.30986  -0.28257
C          C       0.18285   0.84494   0.16723   0.31139
C          C       0.22594   0.89545   0.29252  -0.28035
C          C       0.50488   0.86655   0.18979   0.30755
C          C       0.55510   0.92021   0.31544  -0.28239
C          C       0.68068   0.32998   0.17740   0.31364
C          C       0.73575   0.40323   0.30338  -0.28497
C          C       0.80572   0.29312   0.11174  -0.25854
C          C       0.99231   0.54122   0.50249   0.23477
C          C       0.74785   0.17540   0.97895   0.64374
C          C       0.92732   0.44453   0.37064   0.10076
C          C       0.31773   0.83335   0.11049  -0.25738
C          C       0.47324   0.97208   0.49942   0.23376
C          C       0.26663   0.82622   0.97917   0.64253
C          C       0.41449   0.93635   0.36761   0.10028
N          N      -0.00244   0.75076   0.67377  -0.10969
N          N       0.88056   0.64797   0.56464  -0.20475
N          N       0.65925   0.99477   0.67815  -0.07781
N          N       0.65316   0.02191   0.57322  -0.21980
N          N       0.48704   0.93359   0.67026  -0.10790
N          N       0.36783   0.92248   0.55893  -0.20508
N          N       0.17620   0.70182   0.67835  -0.07962
N          N       0.17550   0.56938   0.57283  -0.21783
O          O       0.61058   0.03737   0.93958  -0.57942
O          O       0.37727   0.73223   0.92309  -0.50803
O          O       0.12056   0.93213   0.93861  -0.58294
O          O       0.84664   0.21179   0.91965  -0.51506
F          F       0.12604   0.32450   0.12993  -0.09984
F          F       0.00028   0.80530   0.09687  -0.11018
F          F       0.64469   0.85173   0.14389  -0.10354
F          F       0.49516   0.29613   0.11535  -0.10856

