data_crystal

_audit_creation_method 'AiiDA-DDEC plugin'

_cell_length_a         6.91656
_cell_length_b        15.30385
_cell_length_c        15.19187

_cell_angle_alpha     117.83223
_cell_angle_beta     98.81849
_cell_angle_gamma     98.57569

_symmetry_space_group_name_Hall 'P 1'
_symmetry_space_group_name_H-M  'P 1'

loop_
_symmetry_equiv_pos_as_xyz
 'x,y,z'

loop_
_atom_site_label
_atom_site_type_symbol
_atom_site_fract_x
_atom_site_fract_y
_atom_site_fract_z
_atom_site_charge
Zn         Zn      0.51793   0.40715   0.73462   0.99085
Zn         Zn      0.78349   0.26344   0.67175   0.99036
Zn         Zn      0.10915   0.32535   0.58903   0.99053
Zn         Zn      0.48207   0.59285   0.26537   0.99081
Zn         Zn      0.21651   0.73656   0.32825   0.99034
Zn         Zn      0.89085   0.67465   0.41097   0.99058
H          H       0.18746   0.53098   0.55584   0.14011
H          H       0.63208   0.44454   0.97576   0.14042
H          H       0.65581   0.02392   0.46796   0.14069
H          H       0.81254   0.46902   0.44416   0.14015
H          H       0.36793   0.55546   0.02424   0.14046
H          H       0.34419   0.97608   0.53204   0.14074
C          C       0.74612   0.39080   0.56169   0.62910
C          C       0.61578   0.44697   0.53245  -0.14817
C          C       0.43550   0.46413   0.56519   0.30500
C          C       0.32504   0.51716   0.53151  -0.19571
C          C       0.18341   0.43558   0.82811   0.62966
C          C       0.08276   0.46610   0.91402  -0.14785
C          C       0.87001   0.43350   0.89869   0.30358
C          C       0.79379   0.46865   0.98594  -0.19574
C          C       0.35484   0.17058   0.60677   0.62829
C          C       0.16857   0.08529   0.55164  -0.14850
C          C       0.97084   0.10042   0.53387   0.30501
C          C       0.80756   0.01388   0.48224  -0.19682
C          C       0.25388   0.60920   0.43831   0.62923
C          C       0.38422   0.55304   0.46755  -0.14825
C          C       0.56450   0.53588   0.43481   0.30495
C          C       0.67496   0.48284   0.46849  -0.19574
C          C       0.81659   0.56442   0.17189   0.62959
C          C       0.91724   0.53390   0.08598  -0.14779
C          C       0.13000   0.56651   0.10131   0.30354
C          C       0.20622   0.53135   0.01406  -0.19577
C          C       0.64517   0.82943   0.39323   0.62828
C          C       0.83143   0.91472   0.44836  -0.14844
C          C       0.02916   0.89958   0.46612   0.30494
C          C       0.19244   0.98612   0.51776  -0.19682
O          O       0.69135   0.35610   0.61893  -0.59446
O          O       0.90622   0.37919   0.53004  -0.52385
O          O       0.36397   0.43284   0.62731  -0.60210
O          O       0.07140   0.37755   0.73577  -0.59670
O          O       0.37500   0.46702   0.84806  -0.52321
O          O       0.73613   0.37027   0.80509  -0.60191
O          O       0.33405   0.26201   0.64041  -0.59473
O          O       0.52696   0.15108   0.61876  -0.52227
O          O       0.92991   0.19316   0.56341  -0.60157
O          O       0.30865   0.64390   0.38107  -0.59452
O          O       0.09378   0.62081   0.46996  -0.52391
O          O       0.63603   0.56716   0.37269  -0.60208
O          O       0.92860   0.62245   0.26422  -0.59659
O          O       0.62500   0.53299   0.15193  -0.52329
O          O       0.26388   0.62974   0.19491  -0.60187
O          O       0.66596   0.73799   0.35959  -0.59474
O          O       0.47305   0.84892   0.38124  -0.52229
O          O       0.07009   0.80684   0.43659  -0.60149

