data_crystal

_audit_creation_method 'AiiDA-DDEC plugin'

_cell_length_a         7.91250
_cell_length_b         8.02921
_cell_length_c         8.12289

_cell_angle_alpha     63.02119
_cell_angle_beta     63.32966
_cell_angle_gamma     60.62095

_symmetry_space_group_name_Hall 'P 1'
_symmetry_space_group_name_H-M  'P 1'

loop_
_symmetry_equiv_pos_as_xyz
 'x,y,z'

loop_
_atom_site_label
_atom_site_type_symbol
_atom_site_fract_x
_atom_site_fract_y
_atom_site_fract_z
_atom_site_charge
Co         Co      0.00003  -0.00003   0.00000   1.18902
Co         Co      0.50006   0.49996   0.49999   1.15389
H          H       0.35676   0.76239   0.73490   0.05984
H          H       0.64332   0.23809   0.26455   0.06001
H          H       0.85660   0.64836   0.22362   0.04990
H          H       0.23687   0.85063   0.27420   0.05946
H          H       0.14348   0.35163   0.77634   0.05001
H          H       0.76355   0.14937   0.72548   0.05945
C          C       0.21997   0.75740   0.73632   0.50739
C          C       0.78014   0.24272   0.26350   0.50666
C          C       0.72039   0.78304   0.24110   0.51287
C          C       0.25167   0.71880   0.25159   0.50340
C          C       0.27970   0.21694   0.75889   0.51258
C          C       0.74851   0.28117   0.74833   0.50307
O          O       0.73763   0.95475   0.15617  -0.50321
O          O       0.36748   0.54450   0.32589  -0.44729
O          O       0.55033   0.76429   0.34464  -0.49404
O          O       0.15505   0.73662   0.15119  -0.46787
O          O       0.26246   0.04523   0.84391  -0.50313
O          O       0.63255   0.45544   0.67419  -0.44718
O          O       0.44975   0.23568   0.65537  -0.49380
O          O       0.84501   0.26333   0.84886  -0.46772
O          O       0.04616   0.85821   0.82439  -0.47718
O          O       0.23638   0.65079   0.64712  -0.47479
O          O       0.76371   0.34916   0.35290  -0.47450
O          O       0.95395   0.14172   0.17568  -0.47685

