data_crystal

_audit_creation_method 'AiiDA-DDEC plugin'

_cell_length_a        14.44716
_cell_length_b        14.77648
_cell_length_c        14.83196

_cell_angle_alpha     45.65869
_cell_angle_beta     86.63260
_cell_angle_gamma     86.80230

_symmetry_space_group_name_Hall 'P 1'
_symmetry_space_group_name_H-M  'P 1'

loop_
_symmetry_equiv_pos_as_xyz
 'x,y,z'

loop_
_atom_site_label
_atom_site_type_symbol
_atom_site_fract_x
_atom_site_fract_y
_atom_site_fract_z
_atom_site_charge
Mn         Mn      0.12345   0.70134   0.55317   1.09367
Mn         Mn      0.39077   0.71264   0.56611   1.11827
Mn         Mn      0.36956   0.44979   0.29873   1.09834
Mn         Mn      0.10189   0.43543   0.28697   1.11695
Mn         Mn      0.86961   0.29837   0.44969   1.09159
Mn         Mn      0.60369   0.28832   0.43573   1.12006
Mn         Mn      0.62311   0.55246   0.70124   1.09418
Mn         Mn      0.88992   0.56495   0.71273   1.11587
H          H       0.99608   0.21309   0.83318   0.14589
H          H       0.14733   0.49388   0.48493   0.13080
H          H       0.34831   0.89456   0.70107   0.14763
H          H       0.09255   0.00660   0.50776   0.13277
H          H       0.49973   0.17202   0.78399   0.14582
H          H       0.33976   0.51244   0.50997   0.13109
H          H       0.14537   0.29314   0.11191   0.14676
H          H       0.40105   0.48976   0.99687   0.13154
H          H      -0.00197   0.78694   0.16886   0.14607
H          H       0.84419   0.50662   0.51485   0.13132
H          H       0.64569   0.10718   0.29882   0.14672
H          H       0.90069   0.99296   0.49411   0.13224
H          H       0.49287   0.82825   0.21550   0.14551
H          H       0.65202   0.48812   0.49244   0.12985
H          H       0.84817   0.70640   0.88957   0.14721
H          H       0.59041   0.51458   0.00085   0.13113
C          C       0.03175   0.46865   0.64751   0.60851
C          C       0.06939   0.36535   0.65899  -0.03163
C          C       0.04382   0.23975   0.75888  -0.07665
C          C       0.07973   0.14790   0.76250   0.03776
C          C       0.14391   0.17455   0.67219   0.04958
C          C       0.16778   0.30218   0.57157  -0.10142
C          C       0.12989   0.39573   0.56472  -0.07779
C          C       0.17131   0.08487   0.65934   0.03170
C          C       0.25567   0.01639   0.69760   0.04948
C          C       0.28153   0.94426   0.67139  -0.12074
C          C       0.22041   0.93667   0.60714  -0.02446
C          C       0.13803   0.00901   0.56202  -0.08871
C          C       0.11466   0.08432   0.58560  -0.07609
C          C       0.02900   0.16769   0.52916   0.58948
C          C       0.24155   0.85275   0.58527   0.61982
C          C       0.23478   0.34087   0.47066   0.54757
C          C       0.45987   0.35544   0.53029   0.60820
C          C       0.42159   0.34168   0.63510  -0.02415
C          C       0.44977   0.24368   0.75949  -0.07647
C          C       0.41474   0.23965   0.85205   0.03543
C          C       0.34807   0.32683   0.82773   0.04900
C          C       0.32222   0.42598   0.70143  -0.09942
C          C       0.35901   0.43333   0.60707  -0.07984
C          C       0.32162   0.33809   0.91865   0.03111
C          C       0.23756   0.29846   0.98851   0.04713
C          C       0.21210   0.32355   0.06160  -0.12098
C          C       0.27335   0.38844   0.06860  -0.02425
C          C       0.35579   0.43432   0.99556  -0.08992
C          C       0.37856   0.41212   0.91914  -0.07314
C          C       0.46325   0.47077   0.83432   0.59457
C          C       0.25206   0.41174   0.15104   0.61709
C          C       0.25625   0.52717   0.66383   0.55080
C          C       0.96119   0.53190   0.35328   0.60810
C          C       0.92360   0.63511   0.34177  -0.02960
C          C       0.94969   0.76053   0.24258  -0.07658
C          C       0.91380   0.85226   0.23931   0.03856
C          C       0.84900   0.82577   0.32897   0.05024
C          C       0.82463   0.69828   0.42891  -0.10307
C          C       0.86234   0.60463   0.43556  -0.07938
C          C       0.82168   0.91564   0.34164   0.02913
C          C       0.73746   0.98448   0.30328   0.04839
C          C       0.71235   0.05708   0.32894  -0.12101
C          C       0.77320   0.06415   0.39375  -0.02404
C          C       0.85537   0.99115   0.43928  -0.09002
C          C       0.87850   0.91611   0.41531  -0.07273
C          C       0.96353   0.83206   0.47269   0.58936
C          C       0.75240   0.14838   0.41528   0.61843
C          C       0.75688   0.65993   0.52899   0.54944
C          C       0.53183   0.64603   0.46995   0.60734
C          C       0.57052   0.65880   0.36597  -0.02177
C          C       0.54296   0.75634   0.24115  -0.07660
C          C       0.57910   0.75994   0.14928   0.03688
C          C       0.64540   0.67210   0.17457   0.04676
C          C       0.67086   0.57326   0.30135  -0.09988
C          C       0.63302   0.56658   0.39499  -0.08078
C          C       0.67244   0.66085   0.08368   0.03050
C          C       0.75661   0.70025   0.01397   0.04957
C          C       0.78137   0.67591   0.94031  -0.12124
C          C       0.71954   0.61228   0.93223  -0.02481
C          C       0.63676   0.56758   0.00446  -0.08861
C          C       0.61433   0.58916   0.08118  -0.07163
C          C       0.52990   0.53000   0.16626   0.59575
C          C       0.74072   0.59059   0.84831   0.61413
C          C       0.73722   0.47225   0.33929   0.54716
N          N       0.04655   0.01849   0.86399   0.53390
N          N       0.32291   0.02703   0.76075   0.52001
N          N       0.45200   0.14179   0.97994   0.52607
N          N       0.17023   0.23489   0.97828   0.52501
N          N       0.94785   0.98127   0.13877   0.53246
N          N       0.67024   0.97472   0.23946   0.52632
N          N       0.54172   0.85670   0.02152   0.52994
N          N       0.82463   0.76283   0.02467   0.52327
O          O       0.05957   0.58016   0.55300  -0.59567
O          O       0.97243   0.44022   0.73154  -0.55427
O          O       0.29450   0.07825   0.79779  -0.30273
O          O       0.40351   0.98720   0.76997  -0.30871
O          O       0.96945   0.00566   0.91202  -0.30987
O          O       0.09790   0.93114   0.89351  -0.32366
O          O       0.32690   0.82386   0.58479  -0.57144
O          O       0.17251   0.81697   0.56843  -0.57917
O          O       0.02990   0.26622   0.40821  -0.61054
O          O       0.95823   0.14053   0.59715  -0.48968
O          O       0.21879   0.45073   0.35605  -0.60453
O          O       0.30639   0.27633   0.49164  -0.50618
O          O       0.43428   0.45164   0.41882  -0.59615
O          O       0.51830   0.27115   0.55760  -0.55822
O          O       0.19931   0.19445   0.93086  -0.30544
O          O       0.08950   0.22794   0.01540  -0.30991
O          O       0.53019   0.09591   0.98967  -0.31277
O          O       0.40226   0.11261   0.06824  -0.31481
O          O       0.16623   0.41628   0.17659  -0.57247
O          O       0.32157   0.42526   0.18911  -0.57777
O          O       0.46051   0.59129   0.73524  -0.61152
O          O       0.53525   0.40528   0.86034  -0.49401
O          O       0.27335   0.64113   0.55320  -0.60827
O          O       0.18607   0.50782   0.72899  -0.50589
O          O       0.93401   0.42022   0.44836  -0.59688
O          O       0.01926   0.56036   0.26823  -0.55417
O          O       0.69812   0.92495   0.20128  -0.30340
O          O       0.59020   0.01436   0.23083  -0.31160
O          O       0.02545   0.99337   0.09204  -0.30874
O          O       0.89611   0.06885   0.10847  -0.32356
O          O       0.66712   0.17826   0.41497  -0.57215
O          O       0.82189   0.18360   0.43207  -0.57718
O          O       0.96189   0.73319   0.59348  -0.60994
O          O       0.03483   0.85875   0.40568  -0.49126
O          O       0.77280   0.55014   0.64372  -0.60426
O          O       0.68536   0.72486   0.50742  -0.50528
O          O       0.55700   0.55002   0.58179  -0.59775
O          O       0.47369   0.73087   0.44178  -0.55580
O          O       0.79667   0.80187   0.07396  -0.30523
O          O       0.90520   0.77028   0.98612  -0.30972
O          O       0.46189   0.89636   0.01292  -0.30873
O          O       0.59259   0.89051   0.93178  -0.32224
O          O       0.82672   0.59036   0.82002  -0.56991
O          O       0.67139   0.57554   0.81101  -0.57810
O          O       0.53383   0.41007   0.26705  -0.61233
O          O       0.45760   0.59524   0.13982  -0.49466
O          O       0.72136   0.35800   0.45058  -0.60761
O          O       0.80660   0.49180   0.27299  -0.50366

