data_crystal

_audit_creation_method 'AiiDA-DDEC plugin'

_cell_length_a        11.87639
_cell_length_b         9.75958
_cell_length_c        14.35218

_cell_angle_alpha     77.31208
_cell_angle_beta     66.45046
_cell_angle_gamma     66.41599

_symmetry_space_group_name_Hall 'P 1'
_symmetry_space_group_name_H-M  'P 1'

loop_
_symmetry_equiv_pos_as_xyz
 'x,y,z'

loop_
_atom_site_label
_atom_site_type_symbol
_atom_site_fract_x
_atom_site_fract_y
_atom_site_fract_z
_atom_site_charge
Cu         Cu      0.11210   0.36062   0.35457   0.83744
Cu         Cu      0.88784   0.63905   0.64929   0.83718
Cu         Cu      0.50000  -0.00072   0.00191   0.99333
H          H       0.49177   0.08230   0.83739   0.33534
H          H       0.61570   0.13762   0.10361   0.14469
H          H       0.74054   0.54836   0.22627   0.33283
H          H       0.35769   0.17374   0.63948   0.12417
H          H       0.20565   0.28238   0.99162   0.14266
H          H       0.84246   0.35523   0.36379   0.13644
H          H       0.18295   0.00176   0.38723   0.12450
H          H       0.04119   0.70278   0.41055   0.10823
H          H       0.39455   0.36619   0.26013   0.13774
H          H       0.84766   0.97923   0.31251   0.13591
H          H       0.72458   0.07907   0.41698   0.10700
H          H       0.91804   0.22325   0.96130   0.10726
H          H       0.79839   0.39178   0.94060   0.10978
H          H       0.48301   0.69019   0.22548   0.12104
H          H       0.48230   0.62794   0.34979   0.12498
H          H       0.47333   0.56861   0.09602   0.12822
H          H       0.58583   0.66075   0.06800   0.15538
H          H       0.61954   0.52195   0.98959   0.13662
H          H       0.70650   0.08347   0.79388   0.12526
H          H       0.46979   0.39370   0.44910   0.14692
H          H       0.61196   0.26316   0.47095   0.14027
H          H       0.59790   0.45293   0.43902   0.14273
H          H       0.98218   0.00890   0.18035   0.13742
H          H       0.92561  -0.00123   0.08705   0.14185
H          H       0.01228   0.12181   0.06572   0.13641
H          H       0.50817   0.91674   0.16645   0.33452
H          H       0.38451   0.86109   0.90001   0.14458
H          H       0.25917   0.45123   0.77790   0.33320
H          H       0.64251   0.82595   0.36414   0.12414
H          H       0.79401   0.71683   0.01241   0.14222
H          H       0.15744   0.64440   0.64025   0.13629
H          H       0.81720  -0.00207   0.61638   0.12479
H          H       0.95918   0.29679   0.59325   0.10873
H          H       0.60543   0.63323   0.74330   0.13718
H          H       0.15249   0.02031   0.69127   0.13585
H          H       0.27544   0.92078   0.58661   0.10719
H          H       0.08235   0.77491   0.04220   0.10739
H          H       0.20226   0.60642   0.06263   0.11027
H          H       0.51737   0.30893   0.77712   0.12223
H          H       0.51823   0.37198   0.65285   0.12489
H          H       0.52707   0.42976   0.90700   0.12801
H          H       0.41452   0.33778   0.93478   0.15529
H          H       0.38090   0.47616   0.01348   0.13690
H          H       0.29335   0.91497   0.20986   0.12522
H          H       0.53049   0.60608   0.55409   0.14678
H          H       0.38839   0.73705   0.53237   0.14101
H          H       0.40219   0.54733   0.56397   0.14295
H          H       0.01817   0.99034   0.82340   0.13751
H          H       0.07484  -0.00006   0.91679   0.14148
H          H       0.98812   0.87706   0.93785   0.13655
C          C       0.66101   0.14035   0.02056   0.08813
C          C       0.45538   0.04692   0.30879   0.57650
C          C       0.92874   0.57785   0.09059  -0.08127
C          C       0.39272   0.12407   0.48979  -0.04281
C          C       0.47252   0.02550   0.41071  -0.02601
C          C       0.42068   0.09691   0.57949  -0.13823
C          C       0.11503   0.37715   0.99603  -0.12189
C          C       0.04484   0.45417   0.08508  -0.03076
C          C       0.84896   0.67051   0.18137   0.60211
C          C       0.91333   0.24453   0.36927   0.08546
C          C       0.08631   0.06155   0.38204   0.14491
C          C       0.14431   0.64160   0.37396   0.14369
C          C       0.32355   0.47121   0.29355   0.06770
C          C       0.09928   0.40089   0.17053   0.52695
C          C       0.27329   0.25692   0.48389   0.56105
C          C       0.80178   0.08874   0.34442  -0.12941
C          C       0.75499   0.30904   0.09962  -0.05488
C          C       0.59023   0.45333   0.24276  -0.06967
C          C       0.64289   0.43520   0.13708   0.09926
C          C       0.74892   0.21233   0.27241  -0.04382
C          C       0.81197   0.20096   0.16638   0.10738
C          C       0.81250   0.28592   0.98749  -0.12895
C          C       0.63919   0.33974   0.31111   0.09403
C          C       0.47911   0.59557   0.28277  -0.13068
C          C       0.57822   0.55162   0.06845  -0.44398
C          C       0.70815   0.11502   0.86106   0.13425
C          C       0.57673   0.36238   0.42322  -0.44655
C          C       0.93931   0.07606   0.12320  -0.43790
C          C       0.33918   0.85820   0.98307   0.08935
C          C       0.54470   0.95260   0.69487   0.57743
C          C       0.07095   0.42140   0.91341  -0.08107
C          C       0.60750   0.87563   0.51383  -0.04325
C          C       0.52766   0.97416   0.59292  -0.02623
C          C       0.57953   0.90279   0.42412  -0.13799
C          C       0.88463   0.62206   0.00799  -0.12104
C          C       0.95484   0.54508   0.91893  -0.03135
C          C       0.15087   0.32893   0.82254   0.60180
C          C       0.08665   0.75510   0.63463   0.08609
C          C       0.91381   0.93811   0.62164   0.14486
C          C       0.85601   0.35793   0.62968   0.14240
C          C       0.67656   0.52824   0.70990   0.06917
C          C       0.90052   0.59856   0.83341   0.52722
C          C       0.72690   0.74278   0.51979   0.56085
C          C       0.19837   0.91090   0.65921  -0.12945
C          C       0.24539   0.68970   0.90373  -0.05589
C          C       0.41014   0.54595   0.76034  -0.07015
C          C       0.35750   0.56363   0.86607   0.10002
C          C       0.25140   0.78710   0.73103  -0.04291
C          C       0.18840   0.79809   0.83710   0.10739
C          C       0.18793   0.71243   0.01591  -0.12958
C          C       0.36113   0.65981   0.69213   0.09506
C          C       0.52129   0.40385   0.72010  -0.13146
C          C       0.42217   0.44683   0.93455  -0.44492
C          C       0.29186   0.88341   0.14261   0.13490
C          C       0.42353   0.63759   0.57997  -0.44782
C          C       0.06108   0.92291   0.88047  -0.43803
N          N       0.19265   0.50763   0.33190  -0.31350
N          N       0.02793   0.21460   0.38024  -0.30438
N          N       0.63312   0.08396   0.95828  -0.28211
N          N       0.90409   0.11383   0.36455   0.18022
N          N       0.75022   0.20367   0.96061   0.17753
N          N       0.35072   0.58057   0.31279   0.18377
N          N       0.23855   0.69002   0.36354  -0.24710
N          N       0.01281   0.99633   0.37269  -0.23871
N          N       0.78176   0.18821   0.85962  -0.23771
N          N       0.80746   0.49190   0.67180  -0.31438
N          N       0.97207   0.78504   0.62363  -0.30512
N          N       0.36692   0.91459   0.04544  -0.28337
N          N       0.09599   0.88582   0.63917   0.18004
N          N       0.25004   0.79474   0.04292   0.17780
N          N       0.64962   0.41884   0.69047   0.18368
N          N       0.76192   0.30945   0.63981  -0.24627
N          N       0.98737   0.00334   0.63089  -0.23864
N          N       0.21838   0.81013   0.14394  -0.23865
O          O       0.02359   0.46903   0.25439  -0.51108
O          O       0.43026   0.12069   0.90593  -0.77192
O          O       0.21351   0.22477   0.43594  -0.53644
O          O       0.48792   0.15164   0.24816  -0.54895
O          O       0.74705   0.63088   0.25028  -0.43244
O          O       0.23875   0.37452   0.52332  -0.50922
O          O       0.41953   0.95238   0.29029  -0.56239
O          O       0.86658   0.78059   0.19091  -0.43828
O          O       0.20781   0.29931   0.15911  -0.52936
O          O       0.97628   0.53054   0.74952  -0.51100
O          O       0.56959   0.87793   0.09800  -0.77105
O          O       0.78657   0.77491   0.56784  -0.53664
O          O       0.51224   0.84776   0.75538  -0.54933
O          O       0.25273   0.36880   0.75375  -0.43251
O          O       0.76151   0.62518   0.48034  -0.50882
O          O       0.58038   0.04719   0.71353  -0.56283
O          O       0.13342   0.21885   0.81280  -0.43828
O          O       0.79203   0.70022   0.84480  -0.52931

