data_crystal

_audit_creation_method 'AiiDA-DDEC plugin'

_cell_length_a         6.71164
_cell_length_b        21.40726
_cell_length_c        21.26501

_cell_angle_alpha     120.09997
_cell_angle_beta     90.43224
_cell_angle_gamma     89.58883

_symmetry_space_group_name_Hall 'P 1'
_symmetry_space_group_name_H-M  'P 1'

loop_
_symmetry_equiv_pos_as_xyz
 'x,y,z'

loop_
_atom_site_label
_atom_site_type_symbol
_atom_site_fract_x
_atom_site_fract_y
_atom_site_fract_z
_atom_site_charge
Ga         Ga     -0.00001   0.49999   0.50000   1.43154
Ga         Ga      0.49999   0.49999   0.50000   1.42303
Ga         Ga      0.50000   0.00000   0.50000   1.43094
Ga         Ga      0.00000   0.00000   0.50001   1.42556
Ga         Ga     -0.00001  -0.00001  -0.00000   1.39214
Ga         Ga      0.49999  -0.00000   0.00001   1.39424
H          H       0.96461   0.29691   0.46732   0.12423
H          H       0.97407   0.70837   0.68080   0.11925
H          H       0.98219   0.82398   0.80022   0.13257
H          H       0.25157   0.46085   0.40382   0.41202
H          H       0.45197   0.66377   0.43496   0.12633
H          H       0.46670   0.35478   0.26712   0.11971
H          H       0.45806   0.23848   0.14773   0.12980
H          H       0.74841   0.53916   0.59617   0.41188
H          H       0.53146   0.21867   0.56461   0.12996
H          H       0.52699   0.97332   0.68147   0.12220
H          H       0.51605   0.97597   0.80052   0.13192
H          H       0.24522   0.94006   0.40431   0.41412
H          H       0.04624   0.82235   0.53672   0.12491
H          H       0.02955   0.91105   0.26839   0.11980
H          H       0.04163   0.90932   0.14949   0.12927
H          H       0.75477   0.05994   0.59570   0.41405
H          H       0.03536   0.70308   0.53268   0.12405
H          H       0.02594   0.29164   0.31917   0.11920
H          H       0.01781   0.17603   0.19975   0.13237
H          H       0.54798   0.33624   0.56507   0.12638
H          H       0.53325   0.64522   0.73287   0.11964
H          H       0.54188   0.76151   0.85226   0.12983
H          H       0.46848   0.78134   0.43543   0.12994
H          H       0.47302   0.02666   0.31853   0.12220
H          H       0.48397   0.02402   0.19949   0.13195
H          H       0.95374   0.17765   0.46330   0.12497
H          H       0.97046   0.08893   0.73161   0.11979
H          H       0.95837   0.09066   0.85051   0.12930
C          C       0.08800   0.27907   0.48799  -0.10324
C          C       0.09673   0.72009   0.71870  -0.09751
C          C       0.10117   0.78434   0.78487  -0.09215
C          C       0.58161   0.69852   0.45649  -0.10010
C          C       0.58654   0.31547   0.25202  -0.09469
C          C       0.58169   0.25094   0.18548  -0.09377
C          C       0.40959   0.23631   0.54317  -0.09115
C          C       0.40439  -0.00065   0.71893  -0.09718
C          C       0.39816   0.00055   0.78483  -0.09277
C          C       0.91850   0.78687   0.51392  -0.09040
C          C       0.91093   0.93557   0.25291  -0.09674
C          C       0.91775   0.93438   0.18668  -0.09292
C          C       0.91198   0.72092   0.51202  -0.10314
C          C       0.90327   0.27991   0.28127  -0.09772
C          C       0.89882   0.21566   0.21510  -0.09188
C          C       0.41834   0.30149   0.54353  -0.10025
C          C       0.41343   0.68453   0.74797  -0.09452
C          C       0.41827   0.74906   0.81451  -0.09419
C          C       0.59036   0.76370   0.45686  -0.09081
C          C       0.59563   0.00063   0.28107  -0.09730
C          C       0.60185  -0.00057   0.21518  -0.09264
C          C       0.08148   0.21313   0.48610  -0.09032
C          C       0.08908   0.06441   0.74709  -0.09655
C          C       0.08225   0.06560   0.81332  -0.09308
C          C       0.26547   0.39268   0.51595   0.60191
C          C       0.25701   0.32312   0.51629  -0.01649
C          C       0.24595   0.60223   0.62763   0.61273
C          C       0.25292   0.66984   0.69982  -0.04206
C          C       0.26182   0.79901   0.83297  -0.02024
C          C       0.26405   0.87030   0.90269   0.58672
C          C       0.73450   0.60732   0.48405   0.60214
C          C       0.74295   0.67688   0.48372  -0.01657
C          C       0.75402   0.39777   0.37235   0.61308
C          C       0.74706   0.33016   0.30017  -0.04213
C          C       0.73815   0.20099   0.16701  -0.02034
C          C       0.73591   0.12969   0.09730   0.58656
C          C       0.23380   0.12131   0.51287   0.59433
C          C       0.24161   0.19177   0.51419  -0.02956
C          C       0.25850   0.02719   0.62759   0.61243
C          C       0.24983   0.03124   0.69965  -0.03873
C          C       0.23722   0.03366   0.83222  -0.02120
C          C       0.23369   0.03142   0.90168   0.58629
C          C       0.76618   0.87869   0.48714   0.59443
C          C       0.75836   0.80823   0.48583  -0.02974
C          C       0.74151   0.97280   0.37242   0.61236
C          C       0.75018   0.96874   0.30035  -0.03864
C          C       0.76279   0.96633   0.16778  -0.02142
C          C       0.76630   0.96857   0.09832   0.58625
O          O       0.10460   0.42933   0.53084  -0.56186
O          O       0.07878   0.58808   0.59400  -0.55975
O          O       0.10275   0.90654   0.91532  -0.51726
O          O       0.56533   0.59135   0.49927  -0.55011
O          O       0.59591   0.43612   0.39531  -0.56944
O          O       0.57714   0.11045   0.05918  -0.50056
O          O       0.38998   0.10154   0.53298  -0.56716
O          O       0.42466   0.00595   0.59400  -0.55692
O          O       0.39421   0.00737   0.91460  -0.51792
O          O       0.93115   0.91295   0.50805  -0.55558
O          O       0.89704   0.95544   0.39527  -0.56797
O          O       0.92480   0.94984   0.06062  -0.49956
O          O       0.89537   0.57066   0.46915  -0.56203
O          O       0.92119   0.41192   0.40599  -0.55998
O          O       0.89721   0.09345   0.08466  -0.51750
O          O       0.43465   0.40864   0.50073  -0.55001
O          O       0.40405   0.56387   0.60468  -0.56936
O          O       0.42281   0.88954   0.94081  -0.50087
O          O       0.61002   0.89846   0.46702  -0.56711
O          O       0.57535   0.99404   0.40600  -0.55680
O          O       0.60577   0.99262   0.08541  -0.51775
O          O       0.06883   0.08705   0.49197  -0.55530
O          O       0.10298   0.04455   0.60474  -0.56807
O          O       0.07519   0.05015   0.93938  -0.49974
O          O       0.24811   0.49997   0.45415  -0.83588
O          O       0.75188   0.50003   0.54584  -0.83576
O          O       0.25051   0.95242   0.45505  -0.84336
O          O       0.74948   0.04758   0.54496  -0.84329
O          O       0.25059   0.02305   0.04578  -0.66469
O          O       0.74938   0.97693   0.95423  -0.66456

