data_crystal

_audit_creation_method 'AiiDA-DDEC plugin'

_cell_length_a         9.84961
_cell_length_b        11.73695
_cell_length_c        17.42983

_cell_angle_alpha     90.01874
_cell_angle_beta     90.04443
_cell_angle_gamma     98.78179

_symmetry_space_group_name_Hall 'P 1'
_symmetry_space_group_name_H-M  'P 1'

loop_
_symmetry_equiv_pos_as_xyz
 'x,y,z'

loop_
_atom_site_label
_atom_site_type_symbol
_atom_site_fract_x
_atom_site_fract_y
_atom_site_fract_z
_atom_site_charge
Co         Co      0.55529   0.65711   0.45588   0.82640
Co         Co      0.94540   0.84298   0.95594   0.82696
Co         Co      0.44457   0.34288   0.54409   0.82598
Co         Co      0.05425   0.15701   0.04401   0.82674
H          H       0.40943   0.85111   0.95202   0.14341
H          H       0.65762   0.70438   0.78679   0.14146
H          H       0.22442   0.69962   0.74436   0.13943
H          H       0.26210   0.42789   0.73477   0.16215
H          H       0.41102   0.47127   0.79154   0.15717
H          H       0.40811   0.35570   0.72314   0.19593
H          H       0.59815   0.06916   0.65909   0.09766
H          H       0.69980   0.10237   0.52644   0.14024
H          H       0.68467   0.92585   0.43834   0.11569
H          H       0.09013   0.64890   0.45192   0.14436
H          H       0.84346   0.79600   0.28593   0.14126
H          H       0.27702   0.80079   0.24505   0.13939
H          H       0.23891   0.07313   0.23463   0.16260
H          H       0.09027   0.02937   0.29139   0.15740
H          H       0.09230   0.14469   0.22295   0.19593
H          H       0.90131   0.43117   0.15991   0.09874
H          H       0.79910   0.39763   0.02731   0.13948
H          H       0.81553   0.57361   0.93877   0.11619
H          H       0.59025   0.14889   0.04795   0.14313
H          H       0.34205   0.29567   0.21313   0.14151
H          H       0.77524   0.30042   0.25560   0.13914
H          H       0.73777   0.57210   0.26525   0.16225
H          H       0.58889   0.52878   0.20843   0.15702
H          H       0.59178   0.64434   0.27683   0.19569
H          H       0.40121   0.93091   0.34074   0.09779
H          H       0.29960   0.89766   0.47339   0.14018
H          H       0.31493   0.07412   0.56155   0.11601
H          H       0.90983   0.35109   0.54800   0.14445
H          H       0.15636   0.20400   0.71406   0.14104
H          H       0.72275   0.19924   0.75483   0.13922
H          H       0.76080   0.92691   0.76529   0.16259
H          H       0.90941   0.97076   0.70852   0.15705
H          H       0.90744   0.85535   0.77689   0.19584
H          H       0.09823   0.56880   0.84004   0.09860
H          H       0.20054   0.60236   0.97262   0.14002
H          H       0.18417   0.42638   0.06118   0.11594
C          C       0.67462   0.81621   0.92143   0.53229
C          C       0.16092   0.79057   0.87751   0.53593
C          C       0.41857   0.80677   0.89778  -0.09647
C          C       0.54698   0.78222   0.87407  -0.00824
C          C       0.30212   0.77431   0.85178  -0.01735
C          C       0.55840   0.72540   0.80418  -0.18326
C          C       0.31480   0.72134   0.78048  -0.18651
C          C       0.44293   0.69767   0.75789   0.15570
C          C       0.37508   0.43904   0.73484  -0.49085
C          C       0.43171   0.52203   0.67493   0.36802
C          C       0.50945   0.68624   0.61821   0.17228
C          C       0.55400   0.80540   0.59621   0.28291
C          C       0.60354  -0.00240   0.61993   0.12899
C          C       0.65759   0.01616   0.54599  -0.18379
C          C       0.64932   0.92081   0.49762   0.13780
C          C       0.82525   0.68384   0.42034   0.53267
C          C       0.33921   0.70942   0.37847   0.53508
C          C       0.08149   0.69335   0.39769  -0.09831
C          C       0.95330   0.71799   0.37353  -0.00824
C          C       0.19837   0.72589   0.35217  -0.01610
C          C       0.94253   0.77498   0.30368  -0.18281
C          C       0.18635   0.77903   0.28086  -0.18615
C          C       0.05845   0.80281   0.25787   0.15660
C          C       0.12591   0.06157   0.23468  -0.49227
C          C       0.06950   0.97830   0.17481   0.36995
C          C       0.99224   0.81379   0.11816   0.17397
C          C       0.94739   0.69453   0.09638   0.28268
C          C       0.89646   0.50258   0.12057   0.12628
C          C       0.84209   0.48381   0.04665  -0.18144
C          C       0.85106   0.57888   0.99804   0.13685
C          C       0.32514   0.18378   0.07851   0.53225
C          C       0.83874   0.20944   0.12246   0.53637
C          C       0.58112   0.19324   0.10218  -0.09667
C          C       0.45272   0.21781   0.12588  -0.00835
C          C       0.69755   0.22570   0.14817  -0.01665
C          C       0.44128   0.27464   0.19576  -0.18324
C          C       0.68486   0.27869   0.21947  -0.18565
C          C       0.55674   0.30237   0.24205   0.15589
C          C       0.62479   0.56098   0.26514  -0.49066
C          C       0.56807   0.47800   0.32504   0.36774
C          C       0.49023   0.31379   0.38173   0.17292
C          C       0.44560   0.19463   0.40370   0.28272
C          C       0.39589   0.00246   0.37992   0.12794
C          C       0.34187   0.98387   0.45387  -0.18239
C          C       0.35025   0.07919   0.50227   0.13706
C          C       0.17467   0.31614   0.57967   0.53266
C          C       0.66068   0.29061   0.62143   0.53505
C          C       0.91842   0.30664   0.60224  -0.09835
C          C       0.04659   0.28201   0.62644  -0.00792
C          C       0.80150   0.27412   0.64774  -0.01680
C          C       0.05730   0.22503   0.69629  -0.18241
C          C       0.81346   0.22098   0.71905  -0.18555
C          C       0.94135   0.19721   0.74208   0.15601
C          C       0.87380   0.93848   0.76522  -0.49215
C          C       0.93021   0.02169   0.82513   0.37072
C          C       0.00745   0.18618   0.88180   0.17321
C          C       0.05227   0.30544   0.90358   0.28248
C          C       0.10313   0.49739   0.87939   0.12699
C          C       0.15756   0.51618   0.95329  -0.18188
C          C       0.14862   0.42110   0.00191   0.13706
N          N       0.45755   0.63956   0.68615  -0.07304
N          N       0.46681   0.49927   0.60306  -0.21491
N          N       0.51571   0.60181   0.56803  -0.18535
N          N       0.55400   0.89174   0.64638  -0.30683
N          N       0.59421   0.81505   0.52179  -0.29501
N          N       0.04420   0.86078   0.18606  -0.07528
N          N       0.03407   0.00076   0.10292  -0.21591
N          N       0.98553   0.89803   0.06793  -0.18543
N          N       0.94692   0.60843   0.14676  -0.30547
N          N       0.90701   0.68458   0.02197  -0.29505
N          N       0.54213   0.36047   0.31379  -0.07346
N          N       0.53305   0.50074   0.39692  -0.21438
N          N       0.48409   0.39821   0.43194  -0.18556
N          N       0.44549   0.10831   0.35350  -0.30711
N          N       0.40544   0.18494   0.47814  -0.29496
N          N       0.95552   0.13921   0.81389  -0.07521
N          N       0.96560  -0.00078   0.89702  -0.21540
N          N       0.01412   0.10193   0.93203  -0.18572
N          N       0.05269   0.39154   0.85320  -0.30608
N          N       0.09267   0.31540   0.97799  -0.29459
O          O       0.67829   0.88516   0.97619  -0.52877
O          O       0.77954   0.76959   0.89883  -0.56584
O          O       0.14706   0.82048   0.94799  -0.54789
O          O       0.06140   0.76995   0.83149  -0.55107
O          O       0.82130   0.61461   0.47494  -0.52999
O          O       0.72042   0.73043   0.39761  -0.56455
O          O       0.35252   0.67917   0.44886  -0.54639
O          O       0.43936   0.73013   0.33292  -0.55122
O          O       0.32159   0.11484   0.02375  -0.52915
O          O       0.22018   0.23035   0.10110  -0.56572
O          O       0.85262   0.17955   0.05198  -0.54781
O          O       0.93821   0.23003   0.16851  -0.55194
O          O       0.17869   0.38539   0.52507  -0.52998
O          O       0.27949   0.26954   0.60240  -0.56450
O          O       0.64735   0.32081   0.55102  -0.54628
O          O       0.56053   0.26995   0.66699  -0.55079

