data_crystal

_audit_creation_method 'AiiDA-DDEC plugin'

_cell_length_a         4.45846
_cell_length_b        22.49034
_cell_length_c        24.67857

_cell_angle_alpha     89.94720
_cell_angle_beta     89.70743
_cell_angle_gamma     88.04228

_symmetry_space_group_name_Hall 'P 1'
_symmetry_space_group_name_H-M  'P 1'

loop_
_symmetry_equiv_pos_as_xyz
 'x,y,z'

loop_
_atom_site_label
_atom_site_type_symbol
_atom_site_fract_x
_atom_site_fract_y
_atom_site_fract_z
_atom_site_charge
Mn         Mn      0.20259   0.05612   0.94792   1.02681
Mn         Mn      0.30116   0.44367   0.44783   1.02544
Mn         Mn      0.79742   0.94389   0.05208   1.02666
Mn         Mn      0.69894   0.55635   0.55216   1.02578
H          H       0.73654   0.34493   0.40093   0.10141
H          H       0.79034   0.27555   0.32255   0.15103
H          H       0.98222   0.35594   0.25756   0.14899
H          H       0.95939   0.42301   0.33807   0.10096
H          H       0.02045   0.26827   0.11897   0.12225
H          H       0.05796   0.19328   0.04386   0.12655
H          H       0.85623   0.05747   0.15045   0.12052
H          H       0.82970   0.13426   0.22411   0.12244
H          H       0.76534   0.15374   0.90030   0.10086
H          H       0.71059   0.22236   0.82139   0.15166
H          H       0.52206   0.14236   0.75601   0.15003
H          H       0.54542   0.07596   0.83705   0.10104
H          H       0.48488   0.23025   0.61814   0.12607
H          H       0.44590   0.30602   0.54362   0.12696
H          H       0.64023   0.44230   0.64990   0.11968
H          H       0.66939   0.36461   0.72281   0.12287
H          H       0.26366   0.65509   0.59904   0.10137
H          H       0.20976   0.72447   0.67743   0.15094
H          H       0.01786   0.64409   0.74243   0.14908
H          H       0.04080   0.57702   0.66191   0.10640
H          H       0.97954   0.73174   0.88102   0.12211
H          H       0.94201   0.80672   0.95613   0.12628
H          H       0.14375   0.94253   0.84955   0.12062
H          H       0.17029   0.86575   0.77588   0.12278
H          H       0.23473   0.84626   0.09970   0.10130
H          H       0.28945   0.77765   0.17861   0.15184
H          H       0.47797   0.85766   0.24398   0.15393
H          H       0.45463   0.92405   0.16294   0.10082
H          H       0.51511   0.76978   0.38187   0.12273
H          H       0.55408   0.69402   0.45639   0.12692
H          H       0.35978   0.55773   0.35011   0.11951
H          H       0.33062   0.63541   0.27720   0.12287
C          C       0.57417   0.34667   0.36828   0.10420
C          C       0.60329   0.30763   0.32451  -0.18818
C          C       0.38940   0.31072   0.28364   0.19628
C          C       0.15680   0.35300   0.28803  -0.18716
C          C       0.13823   0.38931   0.33388   0.10164
C          C       0.62188   0.27456   0.19818   0.43551
C          C       0.64015   0.22822   0.15561  -0.09948
C          C       0.43469   0.18251   0.15355   0.02612
C          C       0.20986   0.18008   0.19353  -0.10918
C          C       0.19393   0.22295   0.23870   0.43412
C          C       0.86515   0.23222   0.11656  -0.06338
C          C       0.88609   0.19038   0.07497  -0.08658
C          C       0.68727   0.14386   0.07092  -0.06063
C          C       0.45932   0.13694   0.11069   0.02329
C          C       0.25236   0.09093   0.11380  -0.05434
C          C       0.02172   0.09213   0.15238  -0.09534
C          C       0.00241   0.13512   0.19298  -0.05710
C          C       0.27782   0.03181   0.08566   0.61209
C          C       0.70928   0.10958   0.01871   0.58695
C          C       0.92823   0.15189   0.86744   0.10429
C          C       0.89801   0.19039   0.82328  -0.19009
C          C       0.11271   0.18717   0.78211   0.19692
C          C       0.34643   0.14524   0.78661  -0.18787
C          C       0.36578   0.10944   0.83283   0.10137
C          C       0.88296   0.22337   0.69662   0.43711
C          C       0.86361   0.27029   0.65454  -0.10126
C          C       0.06708   0.31635   0.65267   0.02671
C          C       0.29151   0.31854   0.69236  -0.10700
C          C       0.30901   0.27499   0.73701   0.43506
C          C       0.63883   0.26657   0.61583  -0.06558
C          C       0.61685   0.30886   0.57459  -0.08895
C          C       0.81361   0.35577   0.57078  -0.05761
C          C       0.04034   0.36258   0.61042   0.02214
C          C       0.24497   0.40890   0.61368  -0.05710
C          C       0.47567   0.40743   0.65183  -0.09255
C          C       0.49667   0.36392   0.69199  -0.05976
C          C       0.21850   0.46825   0.58586   0.61340
C          C       0.79354   0.39036   0.51873   0.58669
C          C       0.42599   0.65335   0.63170   0.10418
C          C       0.39680   0.69238   0.67547  -0.18837
C          C       0.61066   0.68929   0.71635   0.19661
C          C       0.84330   0.64702   0.71196  -0.18779
C          C       0.86193   0.61072   0.66611   0.09814
C          C       0.37814   0.72545   0.80182   0.43553
C          C       0.35986   0.77178   0.84438  -0.09931
C          C       0.56531   0.81749   0.84644   0.02627
C          C       0.79014   0.81992   0.80646  -0.10961
C          C       0.80610   0.77705   0.76129   0.43465
C          C       0.13484   0.76779   0.88343  -0.06355
C          C       0.11389   0.80962   0.92502  -0.08684
C          C       0.31271   0.85615   0.92908  -0.06055
C          C       0.54068   0.86307   0.88930   0.02313
C          C       0.74762   0.90907   0.88620  -0.05436
C          C       0.97826   0.90788   0.84761  -0.09521
C          C      -0.00241   0.86489   0.80702  -0.05694
C          C       0.72216   0.96820   0.91434   0.61196
C          C       0.29071   0.89042   0.98128   0.58707
C          C       0.07184   0.84812   0.13256   0.10427
C          C       0.10203   0.80962   0.17672  -0.19010
C          C       0.88733   0.81284   0.21789   0.19673
C          C       0.65361   0.85477   0.21338  -0.19023
C          C       0.63428   0.89057   0.16716   0.10084
C          C       0.11706   0.77664   0.30338   0.43697
C          C       0.13639   0.72974   0.34547  -0.10073
C          C       0.93292   0.68368   0.34734   0.02671
C          C       0.70850   0.68148   0.30764  -0.10683
C          C       0.69100   0.72503   0.26300   0.43491
C          C       0.36118   0.73345   0.38418  -0.06339
C          C       0.38316   0.69117   0.42542  -0.08848
C          C       0.18643   0.64426   0.42922  -0.05798
C          C       0.95968   0.63745   0.38958   0.02239
C          C       0.75506   0.59112   0.38632  -0.05714
C          C       0.52434   0.59259   0.34818  -0.09266
C          C       0.50333   0.63610   0.30802  -0.05968
C          C       0.78154   0.53178   0.41414   0.61313
C          C       0.20653   0.60965   0.48127   0.58701
N          N       0.34401   0.38676   0.37403  -0.28106
N          N       0.40211   0.26875   0.23875  -0.16528
N          N       0.15949   0.11218   0.87329  -0.28059
N          N       0.10100   0.22914   0.73714  -0.16634
N          N       0.65617   0.61327   0.62596  -0.28155
N          N       0.59791   0.73126   0.76124  -0.16552
N          N       0.84059   0.88783   0.12670  -0.28014
N          N       0.89902   0.77088   0.26286  -0.16636
O          O       0.05900   0.01753   0.05545  -0.55981
O          O       0.49315   0.99764   0.10189  -0.56100
O          O       0.50520   0.07262   0.00909  -0.53753
O          O       0.91890   0.12231   0.98563  -0.56251
O          O       0.78710   0.31744   0.19767  -0.43446
O          O       0.01120   0.21854   0.27611  -0.43741
O          O       0.43870   0.48283   0.55567  -0.55932
O          O       0.00147   0.50216   0.60212  -0.56307
O          O      -0.00178   0.42737   0.50919  -0.53640
O          O       0.58601   0.37774   0.48563  -0.56276
O          O       0.72039   0.18011   0.69568  -0.43516
O          O       0.49341   0.27886   0.77389  -0.43877
O          O       0.94097   0.98248   0.94454  -0.55971
O          O       0.50684   0.00236   0.89810  -0.56100
O          O       0.49480   0.92738   0.99091  -0.53737
O          O       0.08111   0.87769   0.01436  -0.56289
O          O       0.21295   0.68256   0.80233  -0.43463
O          O       0.98884   0.78147   0.72389  -0.43716
O          O       0.56133   0.51720   0.44434  -0.55960
O          O      -0.00146   0.49786   0.39788  -0.56141
O          O       0.00188   0.57264   0.49080  -0.53666
O          O       0.41405   0.62227   0.51436  -0.56285
O          O       0.27965   0.81990   0.30432  -0.43600
O          O       0.50664   0.72114   0.22611  -0.43874

