data_crystal

_audit_creation_method 'AiiDA-DDEC plugin'

_cell_length_a        10.92578
_cell_length_b        11.20215
_cell_length_c        17.07610

_cell_angle_alpha     98.42807
_cell_angle_beta     106.63954
_cell_angle_gamma     91.46769

_symmetry_space_group_name_Hall 'P 1'
_symmetry_space_group_name_H-M  'P 1'

loop_
_symmetry_equiv_pos_as_xyz
 'x,y,z'

loop_
_atom_site_label
_atom_site_type_symbol
_atom_site_fract_x
_atom_site_fract_y
_atom_site_fract_z
_atom_site_charge
Cd         Cd      0.09965   0.21878   0.46166   1.08354
Cd         Cd      0.78389   0.27605   0.43828   1.06096
Cd         Cd      0.16684   0.79788   0.93119   1.06452
Cd         Cd      0.18013   0.88775   0.74555   1.20473
Cd         Cd      0.26299   0.10421   0.96240   1.09904
Cd         Cd      0.90035   0.78121   0.53835   1.08353
Cd         Cd      0.21611   0.72395   0.56173   1.06093
Cd         Cd      0.83314   0.20211   0.06881   1.06446
Cd         Cd      0.81986   0.11225   0.25445   1.20467
Cd         Cd      0.73701   0.89579   0.03760   1.09900
H          H       0.39079   0.40253   0.85138   0.14512
H          H       0.44080   0.55452   0.77021   0.11868
H          H       0.39838   0.49265   0.61437   0.12753
H          H       0.06910   0.38584   0.86831   0.14616
H          H       0.98950   0.18051   0.78451   0.13497
H          H       0.94009   0.15730   0.62753   0.14450
H          H       0.09981   0.35944   0.11829   0.12524
H          H       0.14305   0.37464   0.27437   0.12528
H          H       0.35618   0.31839   0.35756   0.14164
H          H       0.38057   0.00857   0.35975   0.14745
H          H       0.52563   0.93220   0.27800   0.13164
H          H       0.43997   0.90323   0.11925   0.14085
H          H       0.88652   0.06096   0.41438   0.37863
H          H       0.36595   0.90471   0.89989   0.37327
H          H       0.60921   0.59746   0.14863   0.14506
H          H       0.55922   0.44547   0.22980   0.11873
H          H       0.60162   0.50735   0.38564   0.12745
H          H       0.93089   0.61416   0.13170   0.14618
H          H       0.01050   0.81948   0.21550   0.13491
H          H       0.05991   0.84269   0.37247   0.14439
H          H       0.90018   0.64054   0.88173   0.12520
H          H       0.85695   0.62536   0.72565   0.12525
H          H       0.64383   0.68162   0.64245   0.14164
H          H       0.61941   0.99144   0.64024   0.14738
H          H       0.47436   0.06779   0.72201   0.13167
H          H       0.56003   0.09677   0.88075   0.14088
H          H       0.11347   0.93904   0.58563   0.37860
H          H       0.63404   0.09528   0.10012   0.37326
C          C       0.30112   0.23370   0.65844  -0.01848
C          C       0.25343   0.10846   0.60842   0.55461
C          C       0.32380   0.26414   0.74436  -0.09541
C          C       0.28570   0.17519   0.79274   0.58937
C          C       0.37563   0.37956   0.78499  -0.06792
C          C       0.40461   0.46355   0.73933  -0.10862
C          C       0.38093   0.43230   0.65484  -0.01324
C          C       0.03712   0.55128   0.62331   0.59845
C          C       0.02904   0.45208   0.67461   0.02062
C          C       0.05997   0.46914   0.76120  -0.07908
C          C       0.04403   0.37156   0.80101  -0.05406
C          C      -0.00121   0.25798   0.75431  -0.09420
C          C       0.97097   0.24284   0.66897  -0.00859
C          C       0.10600   0.59281   0.81052   0.58172
C          C       0.55321   0.24664   0.30146   0.59329
C          C       0.42307   0.27364   0.25060  -0.08768
C          C       0.48626   0.23367   0.11315   0.55265
C          C       0.39403   0.26492   0.16416  -0.01302
C          C       0.18835   0.33606   0.15943  -0.00602
C          C       0.21486   0.34514   0.24434  -0.10949
C          C       0.33279   0.31322   0.29074  -0.07204
C          C       0.13735   0.07322   0.30113   0.59052
C          C       0.22190   0.01614   0.25222  -0.09721
C          C       0.34681   0.99102   0.29238  -0.04771
C          C       0.42734   0.94772   0.24604  -0.10737
C          C       0.38347   0.93216   0.16071  -0.00994
C          C       0.17805   0.99601   0.16563   0.01893
C          C       0.04197   0.01385   0.11488   0.59807
C          C       0.69888   0.76630   0.34157  -0.01816
C          C       0.74656   0.89154   0.39159   0.55448
C          C       0.67620   0.73586   0.25565  -0.09556
C          C       0.71430   0.82481   0.20727   0.58934
C          C       0.62438   0.62044   0.21501  -0.06786
C          C       0.59539   0.53645   0.26068  -0.10863
C          C       0.61907   0.56770   0.34517  -0.01317
C          C       0.96288   0.44871   0.37669   0.59845
C          C       0.97096   0.54791   0.32539   0.02060
C          C       0.94002   0.53086   0.23880  -0.07904
C          C       0.95597   0.62844   0.19900  -0.05413
C          C       0.00122   0.74201   0.24569  -0.09452
C          C       0.02903   0.75715   0.33103  -0.00824
C          C       0.89400   0.40719   0.18948   0.58175
C          C       0.44679   0.75336   0.69855   0.59406
C          C       0.57693   0.72636   0.74941  -0.09037
C          C       0.51373   0.76633   0.88686   0.55271
C          C       0.60597   0.73507   0.83585  -0.01226
C          C       0.81164   0.66393   0.84058  -0.00605
C          C       0.78514   0.65486   0.75568  -0.10959
C          C       0.66722   0.68678   0.70928  -0.07126
C          C       0.86264   0.92678   0.69887   0.59043
C          C       0.77809   0.98387   0.74777  -0.09712
C          C       0.65318   0.00899   0.70761  -0.04760
C          C       0.57265   0.05227   0.75396  -0.10757
C          C       0.61653   0.06784   0.83929  -0.00962
C          C       0.82194   0.00398   0.83437   0.01896
C          C       0.95803   0.98615   0.88512   0.59803
N          N       0.32774   0.32010   0.61527   0.30659
N          N       0.98546   0.33911   0.63115   0.30611
N          N       0.27536   0.29432   0.12030   0.30897
N          N       0.26114   0.95652   0.12286   0.30504
N          N       0.67226   0.67990   0.38474   0.30657
N          N       0.01455   0.66088   0.36885   0.30603
N          N       0.72464   0.70568   0.87971   0.30912
N          N       0.73886   0.04348   0.87714   0.30488
O          O       0.30243   0.29658   0.53342  -0.49288
O          O       0.13462   0.09431   0.56503  -0.58583
O          O       0.33266   0.03007   0.61307  -0.50618
O          O       0.20605   0.08899   0.75019  -0.58384
O          O       0.33324   0.19805   0.87104  -0.55357
O          O       0.96125   0.32367   0.54871  -0.54884
O          O       0.93776   0.60865   0.60413  -0.54247
O          O       0.14197   0.56194   0.60653  -0.55135
O          O       0.12689   0.67714   0.77408  -0.55983
O          O       0.11597   0.60391   0.88869  -0.54190
O          O       0.89776   0.13904   0.39506  -0.89253
O          O       0.24347   0.28589   0.03858  -0.48724
O          O       0.46672   0.12668   0.06968  -0.59632
O          O       0.57090   0.31261   0.11775  -0.49406
O          O       0.62386   0.18745   0.26616  -0.56425
O          O       0.58198   0.29106   0.37951  -0.54370
O          O       0.27451   0.92358   0.88384  -0.89025
O          O       0.96367   0.92335   0.10299  -0.54959
O          O       0.02558   0.11555   0.09089  -0.55874
O          O       0.03111   0.10440   0.25918  -0.58318
O          O       0.18412   0.08799   0.37937  -0.54975
O          O       0.22173   0.94797   0.04036  -0.55217
O          O       0.69756   0.70341   0.46659  -0.49283
O          O       0.86537   0.90568   0.43498  -0.58600
O          O       0.66733   0.96992   0.38693  -0.50599
O          O       0.79395   0.91101   0.24981  -0.58388
O          O       0.66675   0.80195   0.12897  -0.55353
O          O       0.03876   0.67632   0.45130  -0.54875
O          O       0.06224   0.39134   0.39587  -0.54259
O          O       0.85803   0.43805   0.39347  -0.55121
O          O       0.87310   0.32286   0.22592  -0.55968
O          O       0.88402   0.39608   0.11132  -0.54206
O          O       0.10223   0.86096   0.60494  -0.89251
O          O       0.75652   0.71410   0.96144  -0.48722
O          O       0.53328   0.87331   0.93033  -0.59641
O          O       0.42909   0.68739   0.88225  -0.49385
O          O       0.37614   0.81255   0.73384  -0.56408
O          O       0.41803   0.70893   0.62050  -0.54376
O          O       0.72548   0.07641   0.11617  -0.89018
O          O       0.03633   0.07664   0.89700  -0.54972
O          O       0.97440   0.88445   0.90911  -0.55863
O          O       0.96888   0.89560   0.74082  -0.58325
O          O       0.81588   0.91202   0.62062  -0.54970
O          O       0.77827   0.05203   0.95964  -0.55211

