data_crystal

_audit_creation_method 'AiiDA-DDEC plugin'

_cell_length_a         6.97816
_cell_length_b        12.13720
_cell_length_c        20.96285

_cell_angle_alpha     89.99896
_cell_angle_beta     89.99896
_cell_angle_gamma     89.99843

_symmetry_space_group_name_Hall 'P 1'
_symmetry_space_group_name_H-M  'P 1'

loop_
_symmetry_equiv_pos_as_xyz
 'x,y,z'

loop_
_atom_site_label
_atom_site_type_symbol
_atom_site_fract_x
_atom_site_fract_y
_atom_site_fract_z
_atom_site_charge
Cu         Cu      0.25838   0.34183   0.25000   0.12023
Cu         Cu      0.24160   0.84182   0.75000   0.12034
Cu         Cu      0.74162   0.65818   0.75000   0.12028
Cu         Cu      0.75841   0.15818   0.25000   0.12048
H          H       0.49558   0.24449   0.50648   0.09677
H          H       0.64724   0.32287   0.60312   0.10866
H          H       0.85632   0.59408   0.49179   0.09546
H          H       0.71831   0.51121   0.39434   0.10405
H          H       0.39096   0.26309   0.39944   0.11389
H          H       0.59400   0.28929   0.35104   0.11116
H          H       0.09095   0.52887   0.35400   0.12710
H          H       0.08280   0.40474   0.39779   0.11458
H          H       0.00440   0.74444   0.49352   0.09691
H          H       0.85272   0.82278   0.39687   0.10856
H          H       0.64360   0.09403   0.50814   0.09560
H          H       0.78170   0.01124   0.60561   0.10398
H          H       0.10912   0.76314   0.60055   0.11383
H          H       0.90603   0.78928   0.64894   0.11108
H          H       0.40892   0.02895   0.64608   0.12731
H          H       0.41726   0.90482   0.60229   0.11421
H          H       0.50443   0.75552   0.00648   0.09701
H          H       0.35277   0.67714   0.10312   0.10872
H          H       0.14367   0.40594   0.99180   0.09542
H          H       0.28170   0.48881   0.89434   0.10394
H          H       0.60907   0.73692   0.89944   0.11399
H          H       0.40603   0.71074   0.85104   0.11122
H          H       0.90905   0.47114   0.85399   0.12703
H          H       0.91721   0.59527   0.89778   0.11464
H          H       0.99561   0.25556   0.99351   0.09704
H          H       0.14727   0.17723   0.89686   0.10865
H          H       0.35642   0.90597   0.00813   0.09555
H          H       0.21830   0.98876   0.10560   0.10383
H          H       0.89090   0.23688   0.10054   0.11390
H          H       0.09398   0.21072   0.14893   0.11118
H          H       0.59109   0.97106   0.14608   0.12715
H          H       0.58275   0.09518   0.10229   0.11426
H          H       0.50443   0.75552   0.49352   0.09695
H          H       0.35276   0.67714   0.39688   0.10865
H          H       0.14368   0.40594   0.50821   0.09541
H          H       0.28169   0.48881   0.60566   0.10401
H          H       0.60905   0.73692   0.60056   0.11407
H          H       0.40601   0.71072   0.64897   0.11123
H          H       0.90906   0.47114   0.64600   0.12705
H          H       0.91720   0.59527   0.60221   0.11467
H          H       0.99561   0.25557   0.50648   0.09701
H          H       0.14728   0.17723   0.60313   0.10871
H          H       0.35641   0.90598   0.49186   0.09548
H          H       0.21830   0.98877   0.39439   0.10388
H          H       0.89089   0.23688   0.39946   0.11389
H          H       0.09397   0.21073   0.35107   0.11114
H          H       0.59108   0.97106   0.35393   0.12715
H          H       0.58274   0.09518   0.39772   0.11429
H          H       0.49557   0.24449   0.99352   0.09676
H          H       0.64724   0.32287   0.89688   0.10862
H          H       0.85633   0.59407   0.00820   0.09553
H          H       0.71830   0.51120   0.10566   0.10414
H          H       0.39093   0.26309   0.10056   0.11383
H          H       0.59397   0.28928   0.14896   0.11118
H          H       0.09095   0.52887   0.14601   0.12709
H          H       0.08279   0.40474   0.10222   0.11449
H          H       0.00440   0.74444   0.00649   0.09693
H          H       0.85274   0.82278   0.10314   0.10868
H          H       0.64358   0.09403   0.99186   0.09568
H          H       0.78169   0.01124   0.89439   0.10392
H          H       0.10910   0.76313   0.89946   0.11382
H          H       0.90602   0.78929   0.85107   0.11107
H          H       0.40891   0.02895   0.85392   0.12723
H          H       0.41725   0.90483   0.89771   0.11416
C          C       0.58257   0.31873   0.50265  -0.14166
C          C       0.66660   0.36345   0.55724  -0.14432
C          C       0.76241   0.46484   0.55429   0.10603
C          C       0.78291   0.51549   0.49472  -0.12735
C          C       0.70591   0.46873   0.43981  -0.13513
C          C       0.59851   0.37161   0.44330   0.11288
C          C       0.49503   0.32660   0.38589  -0.22932
C          C       0.17294   0.47596   0.38664  -0.23468
C          C       0.91742   0.81869   0.49734  -0.14216
C          C       0.83339   0.86338   0.44274  -0.14406
C          C       0.73757   0.96478   0.44567   0.10594
C          C       0.71705   0.01545   0.50523  -0.12743
C          C       0.79411   0.96874   0.56015  -0.13494
C          C       0.90152   0.87162   0.55668   0.11320
C          C       0.00499   0.82663   0.61409  -0.22929
C          C       0.32705   0.97603   0.61341  -0.23454
C          C       0.41744   0.68129   0.00265  -0.14166
C          C       0.33341   0.63657   0.05724  -0.14424
C          C       0.23759   0.53518   0.05430   0.10614
C          C       0.21708   0.48454   0.99473  -0.12771
C          C       0.29411   0.53129   0.93981  -0.13500
C          C       0.40150   0.62841   0.94330   0.11274
C          C       0.50498   0.67341   0.88590  -0.22910
C          C       0.82707   0.52405   0.88664  -0.23457
C          C       0.08258   0.18132   0.99733  -0.14198
C          C       0.16660   0.13662   0.94273  -0.14416
C          C       0.26244   0.03523   0.94566   0.10606
C          C       0.28295   0.98455   0.00522  -0.12761
C          C       0.20591   0.03127   0.06014  -0.13477
C          C       0.09850   0.12839   0.05667   0.11315
C          C       0.99502   0.17338   0.11408  -0.22931
C          C       0.67296   0.02398   0.11341  -0.23449
C          C       0.41743   0.68129   0.49735  -0.14166
C          C       0.33340   0.63656   0.44276  -0.14425
C          C       0.23759   0.53517   0.44571   0.10614
C          C       0.21709   0.48453   0.50528  -0.12771
C          C       0.29410   0.53129   0.56019  -0.13505
C          C       0.40150   0.62840   0.55670   0.11293
C          C       0.50497   0.67341   0.61411  -0.22932
C          C       0.82707   0.52405   0.61336  -0.23457
C          C       0.08258   0.18132   0.50266  -0.14211
C          C       0.16661   0.13662   0.55726  -0.14410
C          C       0.26243   0.03523   0.55434   0.10615
C          C       0.28295   0.98456   0.49477  -0.12767
C          C       0.20590   0.03127   0.43985  -0.13487
C          C       0.09849   0.12839   0.44332   0.11318
C          C       0.99501   0.17338   0.38591  -0.22920
C          C       0.67295   0.02398   0.38659  -0.23442
C          C       0.58257   0.31872   0.99735  -0.14165
C          C       0.66658   0.36345   0.94276  -0.14427
C          C       0.76242   0.46483   0.94571   0.10597
C          C       0.78291   0.51548   0.00527  -0.12746
C          C       0.70590   0.46872   0.06019  -0.13519
C          C       0.59850   0.37161   0.05670   0.11291
C          C       0.49502   0.32660   0.11410  -0.22916
C          C       0.17293   0.47596   0.11336  -0.23458
C          C       0.91743   0.81869   0.00267  -0.14215
C          C       0.83340   0.86339   0.05727  -0.14417
C          C       0.73757   0.96478   0.05434   0.10608
C          C       0.71705   0.01545   0.99478  -0.12760
C          C       0.79410   0.96874   0.93986  -0.13487
C          C       0.90150   0.87162   0.94333   0.11314
C          C       0.00498   0.82663   0.88591  -0.22922
C          C       0.32704   0.97603   0.88659  -0.23449
S          S       0.37528   0.43069   0.33645   0.07802
S          S       0.12464   0.93070   0.66356   0.07797
S          S       0.62473   0.56933   0.83645   0.07776
S          S       0.87536   0.06931   0.16356   0.07786
S          S       0.62473   0.56932   0.66355   0.07784
S          S       0.87536   0.06931   0.33644   0.07773
S          S       0.37528   0.43069   0.16355   0.07801
S          S       0.12464   0.93070   0.83644   0.07795
Br         Br      0.88462   0.35429   0.25000  -0.43284
Br         Br      0.61532   0.85425   0.75000  -0.43269
Br         Br      0.11538   0.64571   0.75000  -0.43290
Br         Br      0.38468   0.14576   0.25000  -0.43280

