data_crystal

_audit_creation_method 'AiiDA-DDEC plugin'

_cell_length_a         9.14630
_cell_length_b        15.27315
_cell_length_c        19.16306

_cell_angle_alpha     90.10077
_cell_angle_beta     90.00104
_cell_angle_gamma     90.00157

_symmetry_space_group_name_Hall 'P 1'
_symmetry_space_group_name_H-M  'P 1'

loop_
_symmetry_equiv_pos_as_xyz
 'x,y,z'

loop_
_atom_site_label
_atom_site_type_symbol
_atom_site_fract_x
_atom_site_fract_y
_atom_site_fract_z
_atom_site_charge
Cd         Cd      0.66696   0.50002   0.25000   0.88740
Cd         Cd      0.33305   0.50002   0.75001   0.88744
Cd         Cd      0.83286   0.00002   0.75000   0.88803
Cd         Cd      0.16714   0.00001   0.25000   0.88793
H          H       0.95121   0.32247   0.24288   0.15490
H          H       0.84266   0.69256   0.40475   0.28388
H          H       0.15735   0.69258   0.90475   0.28422
H          H       0.52086   0.39074   0.10456   0.14408
H          H       0.47917   0.60932   0.89545   0.14411
H          H       0.98398   0.10878   0.60525   0.14485
H          H       0.18157   0.38853   0.96443   0.13885
H          H       0.55876   0.82008   0.75727   0.15444
H          H       0.65744   0.80620   0.90685   0.28478
H          H       0.34259   0.80616   0.40688   0.28441
H          H       0.04876   0.67756   0.75714   0.15506
H          H       0.18157   0.61150   0.53559   0.13861
H          H       0.95113   0.67757   0.25714   0.15501
H          H       0.68261   0.88889   0.53485   0.13812
H          H       0.04890   0.32246   0.74289   0.15485
H          H       0.98409   0.89131   0.89474   0.14462
H          H       0.44121   0.82006   0.25729   0.15424
H          H       0.31739   0.88888   0.03485   0.13789
H          H       0.84264   0.30749   0.09528   0.28408
H          H       0.65748   0.19391   0.59313   0.28523
H          H       0.55888   0.18001   0.74271   0.15438
H          H       0.44118   0.17998   0.24272   0.15433
H          H       0.52094   0.60932   0.39546   0.14410
H          H       0.15737   0.30750   0.59528   0.28424
H          H       0.68265   0.11118   0.96516   0.13801
H          H       0.01601   0.89130   0.39475   0.14464
H          H       0.47910   0.39076   0.60456   0.14404
H          H       0.81842   0.38854   0.46442   0.13874
H          H       0.81845   0.61151   0.03559   0.13856
H          H       0.34254   0.19386   0.09314   0.28485
H          H       0.01595   0.10875   0.10525   0.14476
H          H       0.31736   0.11119   0.46516   0.13804
C          C       0.99019   0.14699   0.65279   0.06303
C          C       0.60232   0.93748   0.51895  -0.10710
C          C       0.91951   0.49004   0.06266  -0.03675
C          C       0.02246   0.42592   0.04241  -0.03666
C          C       0.97567   0.74337   0.27470   0.05348
C          C       0.60235   0.06259   0.98106  -0.10693
C          C       0.93858   0.65352   0.91557   0.48471
C          C       0.46868   0.24523   0.22502   0.05524
C          C       0.56148   0.15306   0.08549   0.48764
C          C       0.33684   0.01288   0.13067   0.53821
C          C       0.97757   0.57413   0.95761  -0.03667
C          C       0.02436   0.25666   0.72532   0.05342
C          C       0.00978   0.14697   0.15278   0.06297
C          C       0.52299   0.07385   0.04286  -0.03798
C          C       0.93858   0.34652   0.58443   0.48502
C          C       0.39765   0.06261   0.48106  -0.10723
C          C       0.66317   0.01289   0.63068   0.53819
C          C       0.97571   0.25666   0.22531   0.05325
C          C       0.47700   0.07386   0.54286  -0.03759
C          C       0.33681   0.98717   0.36933   0.53795
C          C       0.39767   0.93747   0.01894  -0.10690
C          C       0.97754   0.42592   0.54241  -0.03677
C          C       0.51068   0.35332   0.15224   0.06186
C          C       0.43853   0.15308   0.58549   0.48725
C          C       0.02246   0.57413   0.45761  -0.03682
C          C       0.89834   0.56277   0.01941  -0.10691
C          C       0.56150   0.84704   0.41450   0.48718
C          C       0.47703   0.92622   0.95715  -0.03781
C          C       0.53138   0.24525   0.72502   0.05525
C          C       0.66319   0.98717   0.86933   0.53820
C          C       0.16318   0.48724   0.63069   0.53766
C          C       0.48932   0.64674   0.84776   0.06191
C          C       0.43852   0.84702   0.91450   0.48766
C          C       0.10170   0.43728   0.98061  -0.10704
C          C       0.91950   0.51002   0.43736  -0.03670
C          C       0.58060   0.99011   0.93739  -0.03645
C          C       0.52297   0.92623   0.45715  -0.03775
C          C       0.99022   0.85308   0.84722   0.06321
C          C       0.41941   0.99013   0.43739  -0.03632
C          C       0.89830   0.43729   0.48061  -0.10716
C          C       0.58057   0.00996   0.56262  -0.03618
C          C       0.08049   0.49004   0.56266  -0.03656
C          C       0.02426   0.74337   0.77470   0.05381
C          C       0.48932   0.35334   0.65224   0.06187
C          C       0.06144   0.65353   0.41557   0.48450
C          C       0.08051   0.51001   0.93736  -0.03660
C          C       0.46872   0.75482   0.27499   0.05466
C          C       0.41943   0.00994   0.06262  -0.03622
C          C       0.16319   0.51281   0.86933   0.53800
C          C       0.51074   0.64673   0.34777   0.06188
C          C       0.06142   0.34651   0.08444   0.48472
C          C       0.10168   0.56276   0.51941  -0.10699
C          C       0.00982   0.85307   0.34722   0.06323
C          C       0.53127   0.75483   0.77497   0.05428
C          C       0.83683   0.48724   0.13069   0.53793
C          C       0.83683   0.51281   0.36932   0.53814
N          N       0.01243   0.18866   0.26331  -0.18766
N          N       0.05132   0.28766   0.59903  -0.32417
N          N       0.94869   0.28764   0.09902  -0.32418
N          N       0.52996   0.73238   0.84481   0.17620
N          N       0.50525   0.68661   0.23697  -0.18826
N          N       0.47009   0.73237   0.34483   0.17587
N          N       0.53213   0.61866   0.28336  -0.19807
N          N       0.44891   0.78744   0.40143  -0.32559
N          N       0.97204   0.76692   0.34436   0.17519
N          N       0.50522   0.31343   0.26304  -0.18866
N          N       0.96579   0.88038   0.78292  -0.19926
N          N       0.98765   0.18865   0.76331  -0.18780
N          N       0.46791   0.61866   0.78336  -0.19812
N          N       0.94872   0.71241   0.40100  -0.32394
N          N       0.49473   0.68662   0.73696  -0.18829
N          N       0.03421   0.88038   0.28292  -0.19918
N          N       0.55116   0.21264   0.59858  -0.32634
N          N       0.98754   0.81137   0.73670  -0.18812
N          N       0.53207   0.38139   0.21665  -0.19799
N          N       0.03421   0.11966   0.21707  -0.19896
N          N       0.96581   0.11966   0.71708  -0.19887
N          N       0.53000   0.26771   0.65518   0.17575
N          N       0.01238   0.81138   0.23669  -0.18783
N          N       0.97204   0.23313   0.15565   0.17542
N          N       0.46794   0.38141   0.71665  -0.19831
N          N       0.44885   0.21261   0.09858  -0.32594
N          N       0.55113   0.78745   0.90142  -0.32570
N          N       0.02795   0.76692   0.84436   0.17514
N          N       0.05129   0.71242   0.90101  -0.32406
N          N       0.02799   0.23313   0.65566   0.17518
N          N       0.49483   0.31345   0.76304  -0.18849
N          N       0.47002   0.26768   0.15518   0.17546
O          O       0.68800   0.16943   0.10280  -0.47356
O          O       0.61936   0.06370   0.67870  -0.57239
O          O       0.68803   0.83075   0.39717  -0.47319
O          O       0.11950   0.43656   0.67871  -0.57379
O          O       0.72557   0.53766   0.13631  -0.54290
O          O       0.38066   0.93637   0.32132  -0.57213
O          O       0.38066   0.06367   0.17870  -0.57222
O          O       0.81136   0.67040   0.89986  -0.47247
O          O       0.88049   0.43654   0.17870  -0.57396
O          O       0.88048   0.56351   0.32132  -0.57403
O          O       0.61934   0.93638   0.82131  -0.57238
O          O       0.18864   0.32960   0.10013  -0.47222
O          O       0.18866   0.67041   0.39987  -0.47202
O          O       0.22560   0.96241   0.13629  -0.54415
O          O       0.81136   0.32959   0.60012  -0.47259
O          O       0.27442   0.46236   0.86369  -0.54256
O          O       0.77444   0.03761   0.86371  -0.54405
O          O       0.31199   0.83068   0.89718  -0.47391
O          O       0.27446   0.53766   0.63631  -0.54280
O          O       0.22556   0.03762   0.36371  -0.54411
O          O       0.11956   0.56353   0.82133  -0.57441
O          O       0.72558   0.46237   0.36369  -0.54303
O          O       0.31202   0.16944   0.60281  -0.47355
O          O       0.77438   0.96240   0.63630  -0.54392

