data_crystal

_audit_creation_method 'AiiDA-DDEC plugin'

_cell_length_a         9.35890
_cell_length_b        14.96006
_cell_length_c        18.35221

_cell_angle_alpha     89.97615
_cell_angle_beta     91.51093
_cell_angle_gamma     89.85836

_symmetry_space_group_name_Hall 'P 1'
_symmetry_space_group_name_H-M  'P 1'

loop_
_symmetry_equiv_pos_as_xyz
 'x,y,z'

loop_
_atom_site_label
_atom_site_type_symbol
_atom_site_fract_x
_atom_site_fract_y
_atom_site_fract_z
_atom_site_charge
Zn         Zn      0.17482  -0.00056   0.24530   0.77616
Zn         Zn      0.67439   0.50357   0.24518   0.77604
Zn         Zn      0.32560   0.49644   0.75482   0.77600
Zn         Zn      0.82517   0.00056   0.75469   0.77638
H          H       0.83649   0.61594   0.04625   0.13808
H          H       0.63609   0.20433   0.59348   0.28127
H          H       0.93027   0.69426   0.25097   0.15623
H          H       0.08780   0.70273   0.75592   0.15612
H          H       0.66739   0.11465   0.95565   0.13703
H          H       0.84736   0.29654   0.08957   0.28319
H          H       0.56802   0.39974   0.09551   0.14105
H          H       0.16351   0.38407   0.95375   0.13790
H          H       0.06972   0.30574   0.74903   0.15609
H          H       0.57195   0.60463   0.39392   0.14411
H          H       0.32797   0.11386   0.45299   0.13839
H          H       0.15263   0.70347   0.91043   0.28287
H          H       0.13457   0.29211   0.59203   0.28251
H          H       0.59093   0.79390   0.75919   0.15717
H          H       0.57142   0.19120   0.75070   0.15586
H          H       0.35158   0.21070   0.08307   0.28614
H          H       0.92406   0.10276   0.60446   0.14405
H          H       0.43199   0.60026   0.90449   0.14094
H          H       0.91219   0.29728   0.24408   0.15626
H          H       0.33261   0.88535   0.04435   0.13706
H          H       0.86542   0.70790   0.40797   0.28275
H          H       0.64842   0.78930   0.91693   0.28586
H          H       0.17362   0.61204   0.54730   0.13865
H          H       0.67202   0.88615   0.54700   0.13813
H          H       0.36390   0.79567   0.40652   0.28161
H          H       0.94043   0.89810   0.90328   0.14304
H          H       0.05956   0.10191   0.09671   0.14305
H          H       0.07593   0.89725   0.39554   0.14396
H          H       0.42804   0.39537   0.60608   0.14430
H          H       0.42857   0.80880   0.24929   0.15598
H          H       0.82638   0.38796   0.45269   0.13867
H          H       0.40907   0.20611   0.24081   0.15712
C          C       0.53765   0.36696   0.14532   0.05598
C          C       0.42928   0.01226   0.06616  -0.04130
C          C       0.56585   0.00959   0.56946  -0.04136
C          C       0.47054   0.74495   0.26794   0.05852
C          C       0.96785   0.86512   0.85307   0.06133
C          C       0.59647   0.93566   0.52572  -0.10985
C          C       0.90845   0.56541   0.02537  -0.10743
C          C       0.46234   0.63304   0.85467   0.05593
C          C       0.47633   0.92166   0.95873  -0.03570
C          C       0.04924   0.86150   0.34578   0.05842
C          C       0.96914   0.42426   0.54258  -0.03669
C          C       0.45471   0.26808   0.22177   0.06099
C          C       0.85955   0.47998   0.13902   0.54183
C          C       0.57491   0.84477   0.41328   0.49122
C          C       0.95076   0.13850   0.65422   0.05863
C          C       0.04439   0.76518   0.77551   0.05833
C          C       0.02703   0.24223   0.73040   0.05819
C          C       0.43414   0.99042   0.43053  -0.04152
C          C       0.03085   0.57575   0.45742  -0.03667
C          C       0.45442   0.35942   0.65584   0.06061
C          C       0.02311   0.42096   0.04054  -0.03661
C          C       0.57072   0.98773   0.93384  -0.04141
C          C       0.93838   0.66347   0.91922   0.49056
C          C       0.93078   0.48772   0.06674  -0.04129
C          C       0.14044   0.52002   0.86097   0.54181
C          C       0.36675   0.98373   0.35546   0.54155
C          C       0.07536   0.65604   0.41414   0.49011
C          C       0.93289   0.51114   0.43085  -0.04170
C          C       0.09155   0.43460   0.97463  -0.10754
C          C       0.13606   0.48079   0.64390   0.54186
C          C       0.03214   0.13489   0.14692   0.06139
C          C       0.95560   0.23482   0.22449   0.05867
C          C       0.52945   0.25505   0.73205   0.05813
C          C       0.35630   0.02129   0.13777   0.54402
C          C       0.90271   0.43667   0.47412  -0.10977
C          C       0.46887   0.07513   0.54310  -0.03736
C          C       0.97689   0.57905   0.95946  -0.03668
C          C       0.86393   0.51922   0.35610   0.54165
C          C       0.42509   0.15523   0.58672   0.49103
C          C       0.63324   0.01627   0.64454   0.54156
C          C       0.06921   0.51228   0.93326  -0.04133
C          C       0.64369   0.97871   0.86223   0.54405
C          C       0.92463   0.34396   0.58586   0.49003
C          C       0.52367   0.07834   0.04127  -0.03569
C          C       0.97296   0.75777   0.26960   0.05801
C          C       0.56305   0.16102   0.08369   0.49210
C          C       0.09728   0.56333   0.52588  -0.10992
C          C       0.06161   0.33653   0.08078   0.49065
C          C       0.54528   0.73193   0.77823   0.06111
C          C       0.06710   0.48886   0.56914  -0.04166
C          C       0.40353   0.06435   0.47428  -0.10964
C          C       0.59368   0.06483   0.97578  -0.10916
C          C       0.43694   0.83898   0.91631   0.49197
C          C       0.40632   0.93517   0.02422  -0.10922
C          C       0.54557   0.64058   0.34416   0.06044
C          C       0.53112   0.92487   0.45690  -0.03725
N          N       0.00138   0.83461   0.73689  -0.18118
N          N       0.52240   0.71545   0.85114   0.18058
N          N       0.02546   0.78199   0.84872   0.18205
N          N       0.95130   0.27620   0.09343  -0.32615
N          N      -0.00139   0.16540   0.26311  -0.18165
N          N       0.06363   0.89034   0.27830  -0.17697
N          N       0.98527   0.17459   0.77016  -0.18502
N          N       0.93636   0.10966   0.72170  -0.17727
N          N       0.51189   0.67710   0.22819  -0.18498
N          N       0.48810   0.32290   0.77180  -0.18524
N          N       0.97454   0.21802   0.15127   0.18216
N          N       0.53099   0.21992   0.59968  -0.33324
N          N       0.02905   0.27777   0.59811  -0.33354
N          N       0.04869   0.72381   0.90657  -0.32626
N          N       0.99235   0.77797   0.34276   0.17848
N          N       0.04784   0.10295   0.21379  -0.17787
N          N       0.54298   0.77367   0.90922  -0.33268
N          N       0.45702   0.22633   0.09078  -0.33246
N          N       0.00764   0.22204   0.65724   0.17824
N          N       0.01472   0.82541   0.22984  -0.18472
N          N       0.49748   0.33697   0.26093  -0.18388
N          N       0.56003   0.61179   0.27670  -0.17657
N          N       0.51057   0.27557   0.65888   0.17856
N          N       0.95215   0.89706   0.78621  -0.17765
N          N       0.55062   0.39883   0.21232  -0.17668
N          N       0.46900   0.78008   0.40031  -0.33355
N          N       0.44937   0.60117   0.78768  -0.17675
N          N       0.47760   0.28456   0.14885   0.18070
N          N       0.43995   0.38821   0.72330  -0.17636
N          N       0.48942   0.72443   0.34111   0.17851
N          N       0.97094   0.72224   0.40189  -0.33384
N          N       0.50250   0.66304   0.73907  -0.18370
O          O       0.09952   0.57835   0.81615  -0.55155
O          O       0.25488   0.96481   0.14949  -0.53772
O          O       0.69947   0.83134   0.39668  -0.47013
O          O       0.30052   0.16867   0.60331  -0.46975
O          O       0.90047   0.42165   0.18385  -0.55219
O          O       0.81326   0.68324   0.90443  -0.47409
O          O       0.24444   0.46455   0.85070  -0.53793
O          O       0.25644   0.03434   0.34283  -0.53836
O          O       0.60615   0.91793   0.81894  -0.55234
O          O       0.39384   0.08207   0.18106  -0.55254
O          O       0.08754   0.42570   0.68826  -0.55011
O          O       0.41733   0.92966   0.31084  -0.54852
O          O       0.75555   0.53545   0.14929  -0.53746
O          O       0.91245   0.57430   0.31174  -0.54989
O          O       0.74355   0.96566   0.65717  -0.53877
O          O       0.75437   0.46849   0.34318  -0.53774
O          O       0.74511   0.03519   0.85051  -0.53785
O          O       0.80018   0.33185   0.60309  -0.46898
O          O       0.58266   0.07034   0.68915  -0.54839
O          O       0.19981   0.66815   0.39691  -0.46931
O          O       0.18673   0.31676   0.09556  -0.47455
O          O       0.31326   0.82460   0.89539  -0.47423
O          O       0.68674   0.17540   0.10461  -0.47480
O          O       0.24562   0.53152   0.65682  -0.53783

