data_crystal

_audit_creation_method 'AiiDA-DDEC plugin'

_cell_length_a         5.19761
_cell_length_b        14.46313
_cell_length_c        26.43310

_cell_angle_alpha     90.38121
_cell_angle_beta     86.54942
_cell_angle_gamma     91.12055

_symmetry_space_group_name_Hall 'P 1'
_symmetry_space_group_name_H-M  'P 1'

loop_
_symmetry_equiv_pos_as_xyz
 'x,y,z'

loop_
_atom_site_label
_atom_site_type_symbol
_atom_site_fract_x
_atom_site_fract_y
_atom_site_fract_z
_atom_site_charge
Cd         Cd      0.02854   0.78199   0.76167   0.91142
Cd         Cd      0.93015   0.25430   0.22884   0.93227
Cd         Cd      0.97780   0.75173   0.26995   0.91849
Cd         Cd      0.03778   0.28421   0.73715   0.90529
Ni         Ni      0.49548   0.52265   0.81030   0.35521
Ni         Ni      0.47468   0.46497   0.21595   0.36271
Ni         Ni      0.42382   0.96484   0.28665   0.35627
Ni         Ni      0.49647   0.01636   0.69626   0.35280
H          H       0.33576   0.64774   0.71267   0.28140
H          H       0.05620   0.71392   0.65248   0.05989
H          H       0.37888   0.59710   0.61873   0.09513
H          H       0.02092   0.66914   0.57662   0.05754
H          H       0.28751   0.56757   0.51786   0.09263
H          H       0.91037   0.65074   0.48867   0.05531
H          H       0.15871   0.55949   0.41993   0.09040
H          H       0.96892   0.80945   0.88029   0.06253
H          H       0.78332   0.91277   0.82023   0.28853
H          H       0.76856   0.37183   0.30883   0.26980
H          H       0.98134   0.23471   0.34943   0.09126
H          H       0.72230   0.35799   0.39061   0.08216
H          H       0.99015   0.24638   0.44452   0.08562
H          H       0.61815   0.34099   0.47780   0.06395
H          H       0.87309   0.24248   0.53569   0.08946
H          H       0.50536   0.32683   0.57968   0.04925
H          H       0.26762   0.17199   0.13128   0.06182
H          H       0.92912   0.09257   0.17340   0.28428
H          H       0.11413   0.87665   0.18902   0.28048
H          H       0.97164   0.74176   0.14312   0.08716
H          H       0.95771   0.91144   0.10624   0.08643
H          H       0.95538   0.78359   0.04796   0.07529
H          H       0.72874   0.93260   0.01669   0.08793
H          H       0.93053   0.81180   0.96222   0.06568
H          H       0.67650   0.93203   0.91711   0.09514
H          H       0.77639   0.64473   0.39673   0.05413
H          H       0.91381   0.58904   0.32385   0.27654
H          H       0.49550   0.21840   0.77965   0.26763
H          H       0.45700   0.27711   0.85470   0.07548
H          H       0.38205   0.09642   0.86610   0.09257
H          H       0.52208   0.17752   0.93905   0.07122
H          H       0.21191   0.05304   0.97237   0.09080
H          H       0.41285   0.14922   0.03741   0.06278
H          H       0.05058   0.05703   0.07607   0.09616
H          H       0.74499   0.23288   0.63128   0.09183
H          H       0.57315   0.34677   0.69032   0.26926
H          H       0.05734   0.40543   0.28936   0.27296
H          H       0.25486   0.31097   0.34451   0.08089
H          H       0.98903   0.43451   0.38894   0.08976
H          H       0.19764   0.34159   0.45188   0.06180
H          H       0.82760   0.43402   0.48733   0.09363
H          H       0.07509   0.34058   0.54565   0.05380
H          H       0.72164   0.43275   0.58915   0.08517
H          H       0.05220   0.26002   0.11070   0.08609
H          H       0.70740   0.15763   0.15065   0.27103
H          H       0.53106   0.73943   0.70637   0.26659
H          H       0.28415   0.80363   0.64374   0.07514
H          H       0.58606   0.68997   0.60016   0.07093
H          H       0.21711   0.76505   0.55752   0.08644
H          H       0.48888   0.66092   0.49934   0.06313
H          H       0.10393   0.74817   0.47358   0.08632
H          H       0.35630   0.65533   0.40650   0.07719
H          H       0.69992   0.73538   0.87375   0.08536
H          H       0.54170   0.84256   0.81398   0.26793
H          H       0.24830   0.14942   0.78648   0.27850
H          H       0.12911   0.28610   0.85404   0.07096
H          H       0.06283   0.12532   0.88038   0.08957
H          H       0.26581   0.25279   0.93937   0.08831
H          H       0.96500   0.13093   0.96870   0.07110
H          H       0.21516   0.24091   0.02786   0.07940
H          H       0.83583   0.13967   0.05828   0.06809
H          H       0.02298   0.30251   0.62283   0.06210
H          H       0.81790   0.41509   0.68062   0.28721
H          H       0.82435   0.89648   0.21202   0.26979
H          H       0.66020   0.76156   0.16762   0.08120
H          H       0.63050   0.90770   0.11975   0.09520
H          H       0.64869   0.74574   0.06927   0.09211
H          H       0.44169   0.86388   0.02502   0.07841
H          H       0.65370   0.74001   0.96910   0.09029
H          H       0.41776   0.84837   0.91758   0.07287
H          H       0.97079   0.74787   0.38834   0.07698
H          H       0.21292   0.62458   0.32628   0.28558
C          C       0.72991   0.59028   0.76643   0.04023
C          C       0.30685   0.96872   0.75475  -0.00833
C          C       0.78894   0.43037   0.18355  -0.01548
C          C       0.35448   0.00128   0.21971  -0.04479
C          C       0.12241   0.91946   0.32423  -0.02796
C          C       0.54391   0.49708   0.28505  -0.06792
C          C       0.33268   0.12556   0.67620  -0.06498
C          C       0.70025   0.42446   0.81607  -0.07099
C          C       0.42460   0.33076   0.22569  -0.05680
C          C       0.70385   0.05200   0.28697  -0.03877
C          C       0.30770   0.62613   0.82648  -0.07462
C          C       0.70415   0.91570   0.69044  -0.05104
C          C       0.70977   0.09303   0.73341   0.02067
C          C       0.33065   0.46942   0.75461   0.01996
C          C       0.48939   0.83476   0.27733  -0.03911
C          C       0.27567   0.57305   0.20697  -0.04977
C          C       0.26345   0.72956   0.65214   0.01407
C          C       0.38345   0.67141   0.60896  -0.18050
C          C       0.22279   0.68900   0.56430  -0.12661
C          C       0.29116   0.64165   0.51359  -0.14897
C          C       0.10676   0.67095   0.47504  -0.12756
C          C       0.16130   0.63469   0.42110  -0.17835
C          C       0.76242   0.80707   0.87449   0.01767
C          C       0.04353   0.30741   0.34718   0.01530
C          C       0.93202   0.36032   0.39260  -0.17762
C          C      -0.00177   0.32406   0.44437  -0.13464
C          C       0.81629   0.35963   0.48684  -0.14921
C          C       0.87370   0.32122   0.53826  -0.13037
C          C       0.71912   0.35139   0.58473  -0.14414
C          C       0.06937   0.18463   0.11773   0.01741
C          C       0.83832   0.79794   0.15427   0.01766
C          C       0.79453   0.86391   0.11051  -0.19624
C          C       0.76654   0.80780   0.06129  -0.14770
C          C       0.65247   0.86144   0.01828  -0.15467
C          C       0.71979   0.81366   0.96726  -0.14490
C          C       0.62970   0.85721   0.91886  -0.18042
C          C       0.97485   0.67101   0.38574   0.02776
C          C       0.28537   0.23753   0.84574   0.00679
C          C       0.25772   0.15327   0.88014  -0.17806
C          C       0.31647   0.18077   0.93409  -0.14603
C          C       0.16702   0.12610   0.97509  -0.15501
C          C       0.22011   0.16234   0.02802  -0.12903
C          C       0.03235   0.12994   0.06980  -0.18606
C          C       0.81367   0.30344   0.62949   0.00471
N          N       0.83000   0.64313   0.73954  -0.37931
N          N       0.22665   0.92835   0.79094  -0.38026
N          N       0.97287   0.38542   0.17255  -0.39799
N          N       0.30409   0.00462   0.17712  -0.37222
N          N       0.95139   0.87243   0.33011  -0.36579
N          N       0.56547   0.51507   0.32784  -0.36100
N          N       0.23759   0.19772   0.66722  -0.35328
N          N       0.83464   0.35822   0.80703  -0.35812
N          N       0.40750   0.25069   0.23190  -0.38862
N          N       0.82189   0.12172   0.27870  -0.37160
N          N       0.21571   0.70074   0.82808  -0.35013
N          N       0.87122   0.86341   0.69313  -0.36417
N          N       0.81521   0.14194   0.76192  -0.37634
N          N       0.26014   0.43145   0.71837  -0.39409
N          N       0.50944   0.75157   0.27108  -0.39438
N          N       0.10212   0.62487   0.21333  -0.35605
N          N       0.34324   0.71732   0.70383  -0.55657
N          N       0.72914   0.84510   0.82332  -0.56558
N          N       0.94846   0.34727   0.29975  -0.54456
N          N       0.89229   0.16111   0.16153  -0.51815
N          N       0.94342   0.84431   0.19933  -0.55381
N          N       0.02888   0.64473   0.33145  -0.54828
N          N       0.30693   0.21655   0.79037  -0.56380
N          N       0.76272   0.34611   0.67985  -0.55529

