data_crystal

_audit_creation_method 'AiiDA-DDEC plugin'

_cell_length_a        11.18781
_cell_length_b        12.07472
_cell_length_c        12.44741

_cell_angle_alpha     90.02072
_cell_angle_beta     89.96370
_cell_angle_gamma     96.29768

_symmetry_space_group_name_Hall 'P 1'
_symmetry_space_group_name_H-M  'P 1'

loop_
_symmetry_equiv_pos_as_xyz
 'x,y,z'

loop_
_atom_site_label
_atom_site_type_symbol
_atom_site_fract_x
_atom_site_fract_y
_atom_site_fract_z
_atom_site_charge
Fe         Fe      0.96751   0.32947   0.11946   1.48627
Fe         Fe      0.49430   0.14582   0.12490   1.52903
Fe         Fe      0.53218   0.17084   0.62043   1.48757
Fe         Fe      0.00561   0.35369   0.62382   1.52957
Fe         Fe      0.03183   0.67096   0.87871   1.48916
Fe         Fe      0.50550   0.85426   0.87498   1.52842
Fe         Fe      0.46790   0.82911   0.37939   1.48770
Fe         Fe      0.99445   0.64616   0.37460   1.52795
P          P       0.43368   0.87725   0.12386   1.57940
P          P       0.56902   0.10752   0.36994   1.61086
P          P       0.25586   0.29760   0.16459   1.48256
P          P       0.06633   0.62320   0.62295   1.57848
P          P       0.93089   0.39256   0.86937   1.61061
P          P       0.24433   0.20363   0.66636   1.48333
P          P       0.56624   0.12279   0.87599   1.57932
P          P       0.43096   0.89245   0.62989   1.61126
P          P       0.74333   0.70234   0.83395   1.48573
P          P       0.93360   0.37675   0.37529   1.57858
P          P       0.06894   0.60766   0.12896   1.61021
P          P       0.75568   0.79634   0.33311   1.48313
H          H       0.28728   0.73771   0.12211   0.40615
H          H       0.74474   0.03731   0.35264   0.41961
H          H       0.15449   0.30055   0.31095   0.41786
H          H       0.21276   0.76257   0.62207   0.40618
H          H       0.75485   0.46260   0.85419   0.41816
H          H       0.34545   0.20297   0.81278   0.41934
H          H       0.71267   0.26229   0.87745   0.40615
H          H       0.25526   0.96268   0.64709   0.41955
H          H       0.84102   0.69861   0.68556   0.41973
H          H       0.78703   0.23749   0.37736   0.40616
H          H       0.24476   0.53730   0.14474   0.41808
H          H       0.65468   0.79713   0.18669   0.41929
C          C       0.70880   0.29050   0.12120   0.47403
C          C       0.75269   0.17254   0.12363   0.48308
C          C       0.79070   0.20937   0.62140   0.47361
C          C       0.74716   0.32750   0.62364   0.48438
C          C       0.29090   0.70961   0.87833   0.47400
C          C       0.24703   0.82766   0.87577   0.48417
C          C       0.20927   0.79064   0.37808   0.47288
C          C       0.25284   0.67250   0.37588   0.48414
O          O       0.52155   0.98535   0.38065  -0.79480
O          O       0.13533   0.27119   0.10223  -0.56913
O          O       0.54626   0.18120   0.46687  -0.71224
O          O       0.49485   0.82308   0.21903  -0.80075
O          O       0.78768   0.37289   0.12945  -0.44011
O          O       0.86536   0.17115   0.12984  -0.43224
O          O       0.34916   0.22333   0.12934  -0.67590
O          O       0.41665   0.00017   0.14352  -0.71766
O          O       0.51644   0.16752   0.27384  -0.70010
O          O       0.51605   0.86078   0.02572  -0.71995
O          O       0.67172   0.09120   0.12065  -0.47773
O          O       0.59684   0.29445   0.11042  -0.41460
O          O       0.30196   0.81937   0.10616  -0.64970
O          O       0.71229   0.11322   0.35563  -0.67966
O          O       0.23474   0.28040   0.28946  -0.60328
O          O       0.29170   0.42097   0.13364  -0.49954
O          O       0.97831   0.51474   0.88052  -0.79439
O          O       0.36463   0.22873   0.60325  -0.57053
O          O       0.95367   0.31865   0.96619  -0.71022
O          O       0.00515   0.67624   0.71888  -0.79877
O          O       0.71153   0.12722   0.62995  -0.44108
O          O       0.63452   0.32911   0.63015  -0.43400
O          O       0.15087   0.27686   0.62937  -0.67556
O          O       0.08300   0.49990   0.63992  -0.72081
O          O       0.98370   0.33294   0.77320  -0.70255
O          O       0.98401   0.64218   0.52543  -0.71784
O          O       0.82832   0.40866   0.62020  -0.47864
O          O       0.90255   0.20506   0.61053  -0.41433
O          O       0.19824   0.68090   0.60603  -0.64965
O          O       0.78761   0.38671   0.85524  -0.67977
O          O       0.26574   0.22404   0.79082  -0.60339
O          O       0.20856   0.07953   0.63833  -0.50052
O          O       0.47843   0.01464   0.61922  -0.79470
O          O       0.86505   0.72943   0.89413  -0.57388
O          O       0.45382   0.81879   0.53299  -0.71244
O          O       0.50516   0.17692   0.78072  -0.80068
O          O       0.21206   0.62729   0.86987  -0.43951
O          O       0.13441   0.82908   0.86905  -0.43261
O          O       0.65060   0.77656   0.87064  -0.67458
O          O       0.58330  -0.00015   0.85641  -0.71728
O          O       0.48347   0.83251   0.72606  -0.70082
O          O       0.48383   0.13927   0.97408  -0.72061
O          O       0.32806   0.90891   0.87922  -0.47645
O          O       0.40284   0.70572   0.88951  -0.41522
O          O       0.69794   0.18070   0.89376  -0.64949
O          O       0.28769   0.88676   0.64420  -0.67989
O          O       0.76157   0.71910   0.70862  -0.60428
O          O       0.70826   0.57914   0.86586  -0.50108
O          O       0.02149   0.48554   0.11662  -0.79367
O          O       0.63522   0.77107   0.39591  -0.57158
O          O       0.04617   0.68171   0.03234  -0.71210
O          O       0.99438   0.32363   0.27895  -0.79856
O          O       0.28846   0.87281   0.36992  -0.44029
O          O       0.36548   0.67089   0.36967  -0.43336
O          O       0.84912   0.72312   0.37020  -0.67522
O          O       0.91714   0.49994   0.35716  -0.72112
O          O       0.01626   0.66703   0.22545  -0.70218
O          O       0.01596   0.35759   0.47261  -0.71989
O          O       0.17165   0.59135   0.37917  -0.47755
O          O       0.09737   0.79488   0.38865  -0.41338
O          O       0.80178   0.31920   0.39315  -0.65004
O          O       0.21210   0.61326   0.14384  -0.67964
O          O       0.73439   0.77608   0.20863  -0.60378
O          O       0.79139   0.92037   0.36148  -0.50035

