data_crystal

_audit_creation_method 'AiiDA-DDEC plugin'

_cell_length_a        10.35645
_cell_length_b        11.56326
_cell_length_c        13.93017

_cell_angle_alpha     105.43125
_cell_angle_beta     99.87036
_cell_angle_gamma     116.20935

_symmetry_space_group_name_Hall 'P 1'
_symmetry_space_group_name_H-M  'P 1'

loop_
_symmetry_equiv_pos_as_xyz
 'x,y,z'

loop_
_atom_site_label
_atom_site_type_symbol
_atom_site_fract_x
_atom_site_fract_y
_atom_site_fract_z
_atom_site_charge
Fe         Fe      0.81024   0.01180   0.79081   1.08522
Fe         Fe      0.46068   0.74201   0.68823   1.09907
Fe         Fe      0.18987   0.98792   0.20951   1.08593
Fe         Fe      0.53941   0.25776   0.31210   1.09944
H          H       0.03548   0.11198   0.99497   0.09499
H          H       0.48589   0.22786   0.97949   0.12639
H          H       0.09307   0.05192   0.70383   0.09237
H          H       0.37246   0.14113   0.78403   0.14742
H          H       0.43367   0.84204   0.90462   0.09920
H          H       0.99043   0.79588   0.87289   0.12399
H          H       0.69738   0.02468   0.58168   0.10755
H          H       0.95879   0.51744   0.82298   0.11405
H          H       0.96274   0.33123   0.88219   0.09933
H          H       0.81189   0.44637   0.63261   0.11564
H          H       0.38636   0.50701   0.49828   0.11140
H          H       0.13292   0.69579   0.60482   0.09390
H          H       0.93782   0.72064   0.67891   0.11389
H          H       0.23965   0.51843   0.75740   0.09516
H          H       0.10405   0.11782   0.52322   0.12011
H          H       0.09048   0.25803   0.69112   0.11239
H          H       0.96457   0.88769   0.00539   0.09493
H          H       0.51430   0.77227   0.02100   0.12573
H          H       0.90717   0.94807   0.29660   0.09223
H          H       0.62782   0.85906   0.21646   0.14773
H          H       0.56633   0.15768   0.09567   0.09868
H          H       0.00965   0.20404   0.12736   0.12426
H          H       0.30277   0.97504   0.41861   0.10719
H          H       0.04153   0.48231   0.17729   0.11395
H          H       0.03743   0.66848   0.11811   0.10005
H          H       0.18843   0.55339   0.36766   0.11531
H          H       0.61379   0.49273   0.50206   0.11079
H          H       0.86718   0.30405   0.39545   0.09380
H          H       0.06230   0.27926   0.32134   0.11404
H          H       0.76046   0.48131   0.24294   0.09544
H          H       0.89613   0.88192   0.47715   0.12095
H          H       0.90965   0.74172   0.30922   0.11267
C          C       0.11461   0.12433   0.95162   0.07650
C          C       0.26840   0.17717   0.00390  -0.08879
C          C       0.36546   0.18943   0.94373  -0.03375
C          C       0.14768   0.09189   0.78877   0.08221
C          C       0.30252   0.14214   0.83408  -0.12322
C          C       0.31402   0.20486   0.11980   0.59169
C          C       0.32164   0.81298   0.85686   0.08801
C          C       0.21619   0.82089   0.90485  -0.09055
C          C       0.07581   0.78839   0.84014  -0.04338
C          C       0.75427   0.13442   0.63287   0.09849
C          C       0.89932   0.40928   0.76740  -0.13630
C          C       0.90311   0.30736   0.80088   0.08673
C          C       0.74543   0.23035   0.59283  -0.07070
C          C       0.81858   0.37024   0.66201  -0.05074
C          C       0.32087   0.44818   0.53906   0.08549
C          C       0.25897   0.85839   0.02290   0.56653
C          C       0.27592   0.23055   0.40445   0.59192
C          C       0.15373   0.73343   0.68939   0.08343
C          C       0.04548   0.74565   0.73111  -0.13011
C          C       0.66149   0.17904   0.47628   0.57081
C          C       0.24903   0.30264   0.49950  -0.08220
C          C       0.23692   0.45414   0.68332   0.09550
C          C       0.16216   0.23139   0.55338  -0.04330
C          C       0.15566   0.30876   0.64628  -0.13825
C          C       0.88549   0.87546   0.04877   0.07723
C          C       0.73171   0.82273   0.99651  -0.08889
C          C       0.63471   0.81061   0.05673  -0.03308
C          C       0.85252   0.90808   0.21165   0.08251
C          C       0.69770   0.85793   0.16638  -0.12388
C          C       0.68607   0.79497   0.88060   0.59152
C          C       0.67839   0.18680   0.14341   0.08881
C          C       0.78386   0.17895   0.09541  -0.09091
C          C       0.92426   0.21149   0.16012  -0.04382
C          C       0.24590   0.86530   0.36742   0.09951
C          C       0.10095   0.59047   0.23288  -0.13647
C          C       0.09709   0.69237   0.19940   0.08554
C          C       0.25478   0.76938   0.40746  -0.07034
C          C       0.18169   0.62950   0.33828  -0.05009
C          C       0.67928   0.55155   0.46128   0.08600
C          C       0.74112   0.14153   0.97736   0.56710
C          C       0.72422   0.76919   0.59589   0.59158
C          C       0.84635   0.26639   0.31087   0.08355
C          C       0.95462   0.25422   0.26915  -0.12983
C          C       0.33868   0.82071   0.52401   0.56965
C          C       0.75112   0.69710   0.50085  -0.08219
C          C       0.76322   0.54560   0.31701   0.09390
C          C       0.83800   0.76835   0.44697  -0.04413
C          C       0.84448   0.69098   0.35406  -0.13789
N          N       0.05457   0.08608   0.84709  -0.25604
N          N       0.29073   0.76717   0.75164  -0.23026
N          N       0.83173   0.17178   0.73452  -0.24687
N          N       0.31744   0.52316   0.62992  -0.22223
N          N       0.94556   0.91375   0.15330  -0.25664
N          N       0.70932   0.23259   0.24864  -0.23048
N          N       0.16843   0.82794   0.26577  -0.24757
N          N       0.68270   0.47658   0.37042  -0.22121
O          O       0.45698   0.27453   0.17351  -0.52882
O          O       0.20558   0.15303   0.15530  -0.55275
O          O       0.60218   0.91732   0.74093  -0.67941
O          O       0.38902   0.30841   0.38299  -0.52936
O          O       0.15890   0.87285   0.06310  -0.58063
O          O       0.18382   0.09882   0.35532  -0.55076
O          O       0.64161   0.27376   0.45180  -0.57392
O          O       0.62542   0.06173   0.41585  -0.49673
O          O       0.37806   0.86891   0.07133  -0.49082
O          O       0.54311   0.72531   0.82690  -0.52921
O          O       0.79450   0.84674   0.84507  -0.55210
O          O       0.39795   0.08244   0.25939  -0.67958
O          O       0.61107   0.69133   0.61732  -0.52899
O          O       0.84112   0.12689   0.93717  -0.58047
O          O       0.81636   0.90091   0.64505  -0.55065
O          O       0.35858   0.72602   0.54852  -0.57358
O          O       0.37469   0.93801   0.58442  -0.49604
O          O       0.62217   0.13122   0.92893  -0.49148

