data_crystal

_audit_creation_method 'AiiDA-DDEC plugin'

_cell_length_a        13.23192
_cell_length_b        12.75625
_cell_length_c        12.75854

_cell_angle_alpha     108.70146
_cell_angle_beta     110.23578
_cell_angle_gamma     110.22341

_symmetry_space_group_name_Hall 'P 1'
_symmetry_space_group_name_H-M  'P 1'

loop_
_symmetry_equiv_pos_as_xyz
 'x,y,z'

loop_
_atom_site_label
_atom_site_type_symbol
_atom_site_fract_x
_atom_site_fract_y
_atom_site_fract_z
_atom_site_charge
Mn         Mn      0.23854   0.77680   0.38941   0.97298
Mn         Mn      0.84925   0.61060   0.38740   0.97332
Mn         Mn      0.46180   0.61253   0.22326   0.97376
Mn         Mn      0.76114   0.22315   0.61063   0.97291
Mn         Mn      0.15045   0.38936   0.61265   0.97321
Mn         Mn      0.53790   0.38740   0.77677   0.97366
Mn         Mn      0.49985   0.49999   0.50003   1.08855
Mn         Mn     -0.00014   0.49998   0.00003   1.08815
Mn         Mn     -0.00017  -0.00001   0.50000   1.08806
H          H       0.05906   0.87692   0.85676   0.11787
H          H       0.04064   0.53462   0.62543   0.11789
H          H       0.21903   0.00626   0.81948   0.09456
H          H       0.29215   0.90146   0.68757   0.10801
H          H       0.95196   0.65874   0.83651   0.36292
H          H       0.20232   0.14301   0.02009   0.11828
H          H       0.41530   0.37472   0.90943   0.11826
H          H       0.39957   0.18004   0.18649   0.09455
H          H       0.60465   0.31206   0.21369   0.10778
H          H       0.11549   0.16346   0.82226   0.36264
H          H       0.18223   0.98002   0.12315   0.11850
H          H       0.50597   0.09059   0.46539   0.11867
H          H       0.21294   0.81353   0.99371   0.09456
H          H       0.39078   0.78624   0.09844   0.10762
H          H       0.29332   0.17783   0.34144   0.36247
H          H       0.94062   0.12304   0.14324   0.11784
H          H       0.95909   0.46535   0.37466   0.11812
H          H       0.78062   0.99369   0.18049   0.09454
H          H       0.70751   0.09848   0.31243   0.10802
H          H       0.04774   0.34124   0.16354   0.36297
H          H       0.79739   0.85693   0.97997   0.11832
H          H       0.58439   0.62521   0.09059   0.11828
H          H       0.60015   0.81993   0.81359   0.09450
H          H       0.39507   0.68793   0.78638   0.10785
H          H       0.88421   0.83647   0.17778   0.36282
H          H       0.81742   0.01990   0.87685   0.11854
H          H       0.49373   0.90939   0.53459   0.11882
H          H       0.78669   0.18635   0.00629   0.09437
H          H       0.60885   0.21366   0.90157   0.10825
H          H       0.70636   0.82212   0.65855   0.36297
C          C       0.21705   0.64694   0.57353   0.32105
C          C       0.17131   0.71038   0.64621   0.02736
C          C       0.37537   0.63757   0.39825   0.57611
C          C       0.31447   0.61291   0.47076  -0.01467
C          C       0.09122   0.83080   0.79890  -0.21509
C          C       0.08202   0.63825   0.66798  -0.24965
C          C       0.04351   0.69777   0.74577   0.31714
C          C       0.17932   0.90254   0.77574  -0.05975
C          C       0.22035   0.84421   0.70088  -0.14919
C          C       0.27167   0.51104   0.49445  -0.04231
C          C       0.25337   0.38054   0.44066   0.54809
C          C       0.64361   0.42641   0.07346   0.32186
C          C       0.52516   0.35368   0.06420   0.02654
C          C       0.97724   0.60181   0.23936   0.57592
C          C       0.84380   0.52922   0.14220  -0.01440
C          C       0.29236   0.20091   0.03186  -0.21553
C          C       0.41411   0.33204   0.97040  -0.24950
C          C       0.29779   0.25422   0.95210   0.31658
C          C       0.40362   0.22394   0.12664  -0.05948
C          C       0.51953   0.29885   0.14323  -0.14899
C          C       0.77728   0.50551   0.01666  -0.04077
C          C       0.81274   0.55933   0.93996   0.54787
C          C       0.57013   0.92649   0.35298   0.32264
C          C       0.46094   0.93578   0.28956   0.02743
C          C       0.73784   0.76055   0.36235   0.57521
C          C       0.70159   0.85773   0.38699  -0.01400
C          C       0.26048   0.96820   0.16924  -0.21554
C          C       0.44376   0.02962   0.36175  -0.25101
C          C       0.34575   0.04796   0.30229   0.31682
C          C       0.27688   0.87337   0.09744  -0.05912
C          C       0.37621   0.85675   0.15572  -0.14928
C          C       0.76064   0.98326   0.48888  -0.04136
C          C       0.87281   0.05990   0.61940   0.54886
C          C       0.78266   0.35302   0.42653   0.32137
C          C       0.82839   0.28957   0.35383   0.02706
C          C       0.62432   0.36239   0.60178   0.57536
C          C       0.68523   0.38705   0.52928  -0.01451
C          C       0.90846   0.16916   0.20111  -0.21452
C          C       0.91769   0.36172   0.33208  -0.25015
C          C       0.95619   0.30220   0.25428   0.31688
C          C       0.82035   0.09742   0.22426  -0.05987
C          C       0.77933   0.15574   0.29913  -0.14899
C          C       0.72804   0.48892   0.50560  -0.04177
C          C       0.74634   0.61942   0.55938   0.54891
C          C       0.35609   0.57355   0.92659   0.32231
C          C       0.47454   0.64627   0.93585   0.02670
C          C       0.02246   0.39815   0.76069   0.57589
C          C       0.15590   0.47073   0.85785  -0.01372
C          C       0.70735   0.79903   0.96819  -0.21558
C          C       0.58559   0.66789   0.02964  -0.24922
C          C       0.70191   0.74571   0.04794   0.31635
C          C       0.59609   0.77603   0.87342  -0.05953
C          C       0.48018   0.70113   0.85684  -0.14913
C          C       0.22241   0.49441   0.98338  -0.04061
C          C       0.18695   0.44059   0.06007   0.54743
C          C       0.42954   0.07345   0.64702   0.32326
C          C       0.53873   0.06416   0.71043   0.02748
C          C       0.26186   0.23941   0.63769   0.57503
C          C       0.29809   0.14222   0.61302  -0.01380
C          C       0.73918   0.03172   0.83076  -0.21567
C          C       0.55592   0.97034   0.63823  -0.25124
C          C       0.65392   0.95198   0.69770   0.31690
C          C       0.72276   0.12653   0.90256  -0.05868
C          C       0.62344   0.14316   0.84428  -0.15043
C          C       0.23904   0.01670   0.51112  -0.04119
C          C       0.12686   0.94006   0.38060   0.54870
N          N       0.27580   0.69531   0.51676  -0.38610
N          N       0.21087   0.53415   0.55958  -0.39075
N          N       0.75916   0.48320   0.17860  -0.38628
N          N       0.65134   0.44035   0.97463  -0.39250
N          N       0.58053   0.82135   0.30459  -0.38720
N          N       0.67673   0.02530   0.46578  -0.39292
N          N       0.72390   0.30466   0.48329  -0.38560
N          N       0.78883   0.46581   0.44046  -0.39151
N          N       0.24054   0.51677   0.82146  -0.38713
N          N       0.34836   0.55957   0.02541  -0.39274
N          N       0.41915   0.17858   0.69542  -0.38750
N          N       0.32294   0.97465   0.53422  -0.39330
O          O       0.35222   0.70209   0.34381  -0.53072
O          O       0.45090   0.59735   0.39066  -0.54972
O          O       0.32015   0.35702   0.39224  -0.56692
O          O       0.95736   0.61717   0.76083  -0.45138
O          O       0.17150   0.29624   0.44382  -0.50228
O          O       0.00856   0.65628   0.35832  -0.53025
O          O       0.06036   0.60946   0.20674  -0.54991
O          O       0.92795   0.60777   0.96486  -0.56643
O          O       0.19656   0.23930   0.85658  -0.45063
O          O       0.72769   0.55616   0.85252  -0.50273
O          O       0.65017   0.64158   0.29786  -0.53047
O          O       0.85358   0.79317   0.40255  -0.54919
O          O       0.96311   0.03497   0.64293  -0.56761
O          O       0.34014   0.14353   0.38293  -0.45034
O          O       0.87521   0.14731   0.70370  -0.50236
O          O       0.64744   0.29784   0.65619  -0.53032
O          O       0.54879   0.40261   0.60937  -0.54986
O          O       0.67956   0.64295   0.60780  -0.56771
O          O       0.04236   0.38281   0.23924  -0.45127
O          O       0.82819   0.70371   0.55621  -0.50256
O          O       0.99114   0.34367   0.64173  -0.53006
O          O       0.93933   0.39049   0.79330  -0.55014
O          O       0.07174   0.39216   0.03518  -0.56648
O          O       0.80314   0.76061   0.14345  -0.45104
O          O       0.27199   0.44374   0.14750  -0.50244
O          O       0.34954   0.35838   0.70218  -0.53028
O          O       0.14612   0.20680   0.59748  -0.54916
O          O       0.03657   0.96502   0.35709  -0.56783
O          O       0.65955   0.85643   0.61706  -0.45062
O          O       0.12443   0.85263   0.29631  -0.50203

