data_crystal

_audit_creation_method 'AiiDA-DDEC plugin'

_cell_length_a         9.01846
_cell_length_b        15.91874
_cell_length_c        15.91520

_cell_angle_alpha     116.60887
_cell_angle_beta     100.87150
_cell_angle_gamma     100.84932

_symmetry_space_group_name_Hall 'P 1'
_symmetry_space_group_name_H-M  'P 1'

loop_
_symmetry_equiv_pos_as_xyz
 'x,y,z'

loop_
_atom_site_label
_atom_site_type_symbol
_atom_site_fract_x
_atom_site_fract_y
_atom_site_fract_z
_atom_site_charge
Cu         Cu      0.49999   0.50000   0.50000   0.63035
Cu         Cu     -0.00001  -0.00000   0.50000   0.63022
Cu         Cu     -0.00001   0.50000   0.00000   0.63008
H          H       0.97327   0.85013   0.62934   0.09562
H          H       0.82266   0.84151   0.74615   0.08903
H          H       0.59812   0.03399   0.71020   0.10764
H          H       0.51597   0.26177   0.63787   0.12115
H          H       0.44509   0.39996   0.62157   0.09430
H          H       0.59767   0.33067   0.37541   0.09609
H          H       0.67911   0.19227   0.38396   0.12836
H          H       0.12363   0.77964   0.15013   0.09669
H          H       0.98226   0.90534   0.15870   0.08934
H          H       0.56506   0.67689   0.96625   0.10732
H          H       0.25452   0.37646   0.73875   0.12053
H          H       0.04546   0.22183   0.60044   0.09389
H          H       0.26667   0.04475   0.66935   0.09581
H          H       0.48649   0.19181   0.80787   0.12793
H          H       0.34398   0.37007   0.22030   0.09605
H          H       0.07690   0.25290   0.09465   0.08928
H          H       0.88825   0.28957   0.32332   0.10773
H          H       0.87842   0.36228   0.62356   0.12020
H          H       0.82391   0.37847   0.77810   0.09449
H          H       0.22204   0.62466   0.95561   0.09632
H          H       0.29480   0.61629   0.80865   0.12774
H          H       0.02671   0.14987   0.37066   0.09563
H          H       0.17731   0.15848   0.25384   0.08896
H          H       0.40185   0.96600   0.28980   0.10758
H          H       0.48401   0.73822   0.36213   0.12103
H          H       0.55488   0.60003   0.37843   0.09434
H          H       0.40230   0.66932   0.62458   0.09618
H          H       0.32087   0.80772   0.61604   0.12839
H          H       0.87635   0.22036   0.84987   0.09682
H          H       0.01771   0.09465   0.84131   0.08968
H          H       0.43492   0.32310   0.03375   0.10707
H          H       0.74545   0.62354   0.26125   0.12061
H          H       0.95452   0.77817   0.39956   0.09379
H          H       0.73330   0.95525   0.33065   0.09576
H          H       0.51349   0.80818   0.19213   0.12795
H          H       0.65600   0.62992   0.77970   0.09643
H          H       0.92307   0.74710   0.90534   0.08916
H          H       0.11173   0.71042   0.67667   0.10745
H          H       0.12156   0.63771   0.37644   0.11998
H          H       0.17607   0.62153   0.22190   0.09430
H          H       0.77794   0.37533   0.04439   0.09645
H          H       0.70518   0.38371   0.19135   0.12813
C          C       0.88938   0.89142   0.64807   0.05102
C          C       0.80603   0.88681   0.71244   0.02601
C          C       0.68268   0.99288   0.69353   0.01163
C          C       0.76548   0.99804   0.62852   0.12492
C          C       0.74351   0.05617   0.58078   0.21128
C          C       0.67329   0.14664   0.52766   0.23246
C          C       0.60797   0.21790   0.51370   0.07805
C          C       0.53532   0.27509   0.57893  -0.16289
C          C       0.49559   0.35148   0.56987   0.08727
C          C       0.58193   0.31300   0.43235   0.08794
C          C       0.62681   0.23649   0.43733  -0.16514
C          C      -0.00145   0.75712   0.10883   0.04976
C          C       0.92015   0.82626   0.11341   0.02497
C          C       0.69064   0.70127   0.00736   0.01227
C          C       0.76794   0.63095   0.00223   0.12312
C          C       0.68762   0.52499   0.94410   0.21400
C          C       0.52670   0.38133   0.85369   0.23211
C          C       0.39007   0.29605   0.78243   0.07790
C          C       0.26041   0.30412   0.72532  -0.16289
C          C       0.14429   0.21860   0.64886   0.08857
C          C       0.26873   0.11943   0.68714   0.08848
C          C       0.39012   0.20099   0.76370  -0.16408
C          C       0.24144   0.35141   0.24288   0.04978
C          C       0.09388   0.28685   0.17377   0.02558
C          C       0.98942   0.30614   0.29888   0.01304
C          C       0.13708   0.37132   0.36917   0.12265
C          C       0.16275   0.41927   0.47517   0.21238
C          C       0.14558   0.47256   0.61891   0.23274
C          C       0.09424   0.48651   0.70419   0.07756
C          C       0.95657   0.42122   0.69598  -0.16176
C          C       0.92594   0.43020   0.78145   0.08710
C          C       0.14945   0.56777   0.88086   0.08722
C          C       0.18928   0.56287   0.79935  -0.16472
C          C       0.11060   0.10857   0.35193   0.05100
C          C       0.19395   0.11318   0.28756   0.02596
C          C       0.31730   0.00711   0.30647   0.01148
C          C       0.23450   0.00195   0.37148   0.12509
C          C       0.25647   0.94382   0.41922   0.21104
C          C       0.32668   0.85335   0.47234   0.23241
C          C       0.39201   0.78210   0.48630   0.07789
C          C       0.46465   0.72490   0.42107  -0.16284
C          C       0.50438   0.64851   0.43013   0.08724
C          C       0.41805   0.68699   0.56765   0.08810
C          C       0.37316   0.76350   0.56267  -0.16512
C          C       0.00142   0.24287   0.89118   0.05009
C          C       0.07983   0.17373   0.88659   0.02493
C          C       0.30933   0.29872   0.99264   0.01228
C          C       0.23204   0.36905   0.99778   0.12295
C          C       0.31236   0.47500   0.05590   0.21411
C          C       0.47327   0.61867   0.14631   0.23190
C          C       0.60990   0.70395   0.21757   0.07787
C          C       0.73957   0.69588   0.27468  -0.16276
C          C       0.85569   0.78139   0.35113   0.08868
C          C       0.73124   0.88056   0.31286   0.08839
C          C       0.60985   0.79900   0.23630  -0.16394
C          C       0.75854   0.64858   0.75712   0.04951
C          C       0.90609   0.71314   0.82623   0.02592
C          C       0.01055   0.69385   0.70112   0.01288
C          C       0.86290   0.62868   0.63083   0.12278
C          C       0.83722   0.58072   0.52483   0.21232
C          C       0.85440   0.52743   0.38109   0.23278
C          C       0.90574   0.51348   0.29581   0.07759
C          C       0.04341   0.57877   0.30402  -0.16189
C          C       0.07404   0.56979   0.21856   0.08678
C          C       0.85053   0.43223   0.11914   0.08734
C          C       0.81070   0.43713   0.20065  -0.16470
N          N       0.87054   0.94716   0.60645  -0.27077
N          N       0.70284   0.93803   0.73594  -0.22771
N          N       0.82251   0.05516   0.51568  -0.21625
N          N       0.77846   0.11247   0.48075  -0.26536
N          N       0.64863   0.11387   0.59110  -0.40508
N          N       0.52085   0.37169   0.49890  -0.24413
N          N       0.92378   0.65968   0.05312  -0.27071
N          N       0.76588   0.79863   0.06219  -0.22777
N          N       0.76741   0.46077   0.94501  -0.21715
N          N       0.66590   0.36849   0.88774  -0.26530
N          N       0.53504   0.47764   0.88650  -0.40527
N          N       0.14917   0.12732   0.62851  -0.24512
N          N       0.26415   0.39330   0.34036  -0.26998
N          N       0.96727   0.26345   0.20148  -0.22821
N          N       0.30672   0.48446   0.53939  -0.21723
N          N       0.29754   0.51949   0.63173  -0.26538
N          N       0.05760   0.40901   0.52256  -0.40438
N          N       0.02204   0.50115   0.87281  -0.24335
N          N       0.12944   0.05284   0.39355  -0.27054
N          N       0.29714   0.06197   0.26406  -0.22789
N          N       0.17746   0.94483   0.48432  -0.21595
N          N       0.22151   0.88752   0.51925  -0.26503
N          N       0.35135   0.88612   0.40890  -0.40527
N          N       0.47912   0.62830   0.50109  -0.24425
N          N       0.07620   0.34031   0.94688  -0.27088
N          N       0.23410   0.20136   0.93781  -0.22768
N          N       0.23257   0.53923   0.05500  -0.21664
N          N       0.33408   0.63150   0.11227  -0.26552
N          N       0.46493   0.52235   0.11350  -0.40543
N          N       0.85081   0.87267   0.37149  -0.24556
N          N       0.73583   0.60669   0.65964  -0.26950
N          N       0.03271   0.73655   0.79852  -0.22870
N          N       0.69326   0.51554   0.46060  -0.21717
N          N       0.70244   0.48050   0.36827  -0.26485
N          N       0.94237   0.59098   0.47744  -0.40500
N          N       0.97794   0.49885   0.12719  -0.24323

