data_crystal

_audit_creation_method 'AiiDA-DDEC plugin'

_cell_length_a        13.54578
_cell_length_b        13.62633
_cell_length_c        16.08906

_cell_angle_alpha     90.00000
_cell_angle_beta     90.20367
_cell_angle_gamma     90.00000

_symmetry_space_group_name_Hall 'P 1'
_symmetry_space_group_name_H-M  'P 1'

loop_
_symmetry_equiv_pos_as_xyz
 'x,y,z'

loop_
_atom_site_label
_atom_site_type_symbol
_atom_site_fract_x
_atom_site_fract_y
_atom_site_fract_z
_atom_site_charge
In         In      0.41713   0.00045   0.24935   1.36914
In         In      0.58287   0.00045   0.75066   1.36906
In         In     -0.00000   0.41965   0.50000   1.37182
In         In     -0.00000   0.58317  -0.00000   1.36871
H          H       0.13648   0.23731   0.32241   0.15297
H          H       0.03833   0.38562   0.25613   0.16248
H          H       0.86351   0.76365   0.82353   0.15303
H          H       0.96239   0.61607   0.75733   0.16181
H          H       0.76318   0.14045   0.57340   0.15251
H          H       0.61535   0.04072   0.50715   0.16249
H          H       0.23329   0.86541   0.07170   0.15304
H          H       0.38165   0.96494   0.00662   0.16343
H          H       0.86351   0.23731   0.67759   0.15285
H          H       0.96167   0.38562   0.74388   0.16232
H          H       0.13649   0.76365   0.17647   0.15299
H          H       0.03760   0.61607   0.24268   0.16190
H          H       0.23682   0.14045   0.42660   0.15249
H          H       0.38464   0.04072   0.49285   0.16234
H          H       0.76671   0.86541   0.92831   0.15293
H          H       0.61835   0.96494   0.99338   0.16350
C          C       0.22125   0.22991   0.20648  -0.06276
C          C       0.14882   0.26613   0.26035  -0.09256
C          C       0.09683   0.34472   0.22561  -0.07789
C          C       0.13048   0.36782   0.14541  -0.06107
C          C       0.28914   0.14742   0.22111   0.53559
C          C       0.09118   0.44594   0.09151   0.53508
C          C       0.77732   0.76989   0.70784  -0.06160
C          C       0.85074   0.73444   0.76159  -0.09248
C          C       0.90305   0.65623   0.72691  -0.07835
C          C       0.86869   0.63251   0.64685  -0.06103
C          C       0.70940   0.85227   0.72267   0.53419
C          C       0.90867   0.55478   0.59306   0.53501
C          C       0.76945   0.22464   0.45714  -0.06170
C          C       0.73399   0.15224   0.51122  -0.09290
C          C       0.65567   0.09939   0.47649  -0.07911
C          C       0.63193   0.13228   0.39604  -0.06095
C          C       0.85190   0.29282   0.47180   0.53593
C          C       0.55388   0.09171   0.34217   0.53556
C          C       0.22904   0.77964   0.95622  -0.06296
C          C       0.26337   0.85302   0.01009  -0.09011
C          C       0.34191   0.90568   0.97603  -0.07887
C          C       0.36684   0.87157   0.89636  -0.06064
C          C       0.14711   0.71092   0.97036   0.53546
C          C       0.44557   0.91116   0.84333   0.53497
C          C       0.77874   0.22991   0.79353  -0.06268
C          C       0.85118   0.26613   0.73965  -0.09258
C          C       0.90316   0.34471   0.77439  -0.07805
C          C       0.86951   0.36782   0.85460  -0.06100
C          C       0.71086   0.14742   0.77889   0.53538
C          C       0.90882   0.44594   0.90849   0.53511
C          C       0.22267   0.76989   0.29216  -0.06152
C          C       0.14925   0.73445   0.23841  -0.09247
C          C       0.09694   0.65623   0.27309  -0.07834
C          C       0.13130   0.63251   0.35316  -0.06082
C          C       0.29059   0.85227   0.27733   0.53427
C          C       0.09133   0.55478   0.40694   0.53469
C          C       0.23055   0.22464   0.54286  -0.06154
C          C       0.26601   0.15224   0.48878  -0.09295
C          C       0.34433   0.09939   0.52351  -0.07905
C          C       0.36807   0.13228   0.60397  -0.06114
C          C       0.14809   0.29282   0.52820   0.53577
C          C       0.44611   0.09171   0.65783   0.53563
C          C       0.77096   0.77964   0.04378  -0.06295
C          C       0.73663   0.85302   0.98991  -0.09020
C          C       0.65808   0.90568   0.02397  -0.07897
C          C       0.63315   0.87157   0.10364  -0.06045
C          C       0.85289   0.71092   0.02964   0.53549
C          C       0.55443   0.91117   0.15667   0.53479
S          S       0.22544   0.29297   0.11298   0.23494
S          S       0.77261   0.70645   0.61450   0.23526
S          S       0.70588   0.22770   0.36342   0.23497
S          S       0.29366   0.77547   0.86353   0.23589
S          S       0.77455   0.29297   0.88702   0.23522
S          S       0.22739   0.70645   0.38550   0.23505
S          S       0.29411   0.22770   0.63658   0.23506
S          S       0.70633   0.77547   0.13647   0.23593
O          O       0.29864   0.11234   0.29463  -0.51824
O          O       0.33782   0.11249   0.16023  -0.49570
O          O       0.03053   0.50710   0.12377  -0.48833
O          O       0.11598   0.45121   0.01532  -0.51265
O          O       0.70129   0.88766   0.79614  -0.51777
O          O       0.65955   0.88703   0.66207  -0.49453
O          O       0.96968   0.49392   0.62538  -0.48612
O          O       0.88406   0.54973   0.51656  -0.51366
O          O       0.88724   0.30239   0.54537  -0.51873
O          O       0.88684   0.34150   0.41095  -0.49511
O          O       0.49327   0.03071   0.37447  -0.48634
O          O       0.54829   0.11604   0.26574  -0.51448
O          O       0.11222   0.70117   0.04392  -0.51864
O          O       0.11246   0.66207   0.90942  -0.49253
O          O       0.50748   0.97056   0.87624  -0.48427
O          O       0.45053   0.88748   0.76676  -0.51188
O          O       0.70136   0.11234   0.70537  -0.51836
O          O       0.66217   0.11249   0.83977  -0.49532
O          O       0.96946   0.50710   0.87623  -0.48856
O          O       0.88402   0.45121   0.98469  -0.51246
O          O       0.29870   0.88766   0.20386  -0.51792
O          O       0.34044   0.88703   0.33793  -0.49454
O          O       0.03032   0.49392   0.37462  -0.48600
O          O       0.11594   0.54973   0.48344  -0.51353
O          O       0.11276   0.30239   0.45463  -0.51875
O          O       0.11316   0.34150   0.58905  -0.49489
O          O       0.50673   0.03071   0.62553  -0.48650
O          O       0.45171   0.11604   0.73426  -0.51428
O          O       0.88778   0.70118   0.95608  -0.51874
O          O       0.88753   0.66207   0.09058  -0.49257
O          O       0.49251   0.97055   0.12376  -0.48413
O          O       0.54946   0.88748   0.23324  -0.51184

