data_crystal

_audit_creation_method 'AiiDA-DDEC plugin'

_cell_length_a         9.98571
_cell_length_b        13.47801
_cell_length_c        15.70929

_cell_angle_alpha     104.73750
_cell_angle_beta     109.11251
_cell_angle_gamma     92.73543

_symmetry_space_group_name_Hall 'P 1'
_symmetry_space_group_name_H-M  'P 1'

loop_
_symmetry_equiv_pos_as_xyz
 'x,y,z'

loop_
_atom_site_label
_atom_site_type_symbol
_atom_site_fract_x
_atom_site_fract_y
_atom_site_fract_z
_atom_site_charge
Ba         Ba      0.54302   0.81916   0.48297   1.57033
Ba         Ba      0.07764   0.93947   0.38172   1.54237
Ba         Ba      0.45698   0.18084   0.51702   1.57041
Ba         Ba      0.92236   0.06053   0.61828   1.54248
H          H       0.76381   0.78229   0.90262   0.14398
H          H       0.79551   0.46710   0.90638   0.15597
H          H       0.15334   0.00308   0.02876   0.14028
H          H       0.01236   0.77203   0.75680   0.12953
H          H       0.66058   0.53971   0.64103   0.13585
H          H       0.53762   0.60797   0.91996   0.12871
H          H       0.41742   0.88757   0.02324   0.12651
H          H       0.79798   0.02410   0.26353   0.09990
H          H       0.44623   0.69085   0.17650   0.10757
H          H       0.67368   0.96176   0.08934   0.10413
H          H       0.36146   0.62213   0.00224   0.09992
H          H       0.04520   0.12714   0.85223   0.36073
H          H       0.84737   0.82072   0.45507   0.37449
H          H       0.90401   0.80244   0.55746   0.42416
H          H       0.68827   0.89276   0.72432   0.35491
H          H       0.71072   0.24480   0.73562   0.36744
H          H       0.08724   0.46369   0.81910   0.35723
H          H       0.23619   0.21771   0.09737   0.14400
H          H       0.20449   0.53291   0.09362   0.15602
H          H       0.84666   0.99692   0.97123   0.14033
H          H       0.98765   0.22797   0.24320   0.12939
H          H       0.33942   0.46029   0.35897   0.13572
H          H       0.46238   0.39203   0.08003   0.12866
H          H       0.58258   0.11243   0.97676   0.12640
H          H       0.20202   0.97590   0.73646   0.09978
H          H       0.55378   0.30916   0.82350   0.10770
H          H       0.32632   0.03824   0.91066   0.10397
H          H       0.63854   0.37787   0.99775   0.09994
H          H       0.95481   0.87286   0.14777   0.36065
H          H       0.15263   0.17928   0.54493   0.37440
H          H       0.09599   0.19756   0.44253   0.42431
H          H       0.31173   0.10724   0.27568   0.35479
H          H       0.28928   0.75520   0.26438   0.36743
H          H       0.91276   0.53631   0.18090   0.35719
C          C       0.78189   0.62731   0.91284   0.24352
C          C       0.16424   0.74570   0.97316  -0.07653
C          C       0.75223   0.70117   0.86409  -0.18256
C          C       0.10294   0.71622   0.87691  -0.05988
C          C       0.70839   0.66935   0.76554  -0.04599
C          C       0.77042   0.52294   0.86629  -0.16246
C          C       0.13724   0.92310   0.98573  -0.17477
C          C       0.72537   0.49145   0.76776  -0.02784
C          C       0.05934   0.79399   0.83322  -0.09518
C          C       0.07622   0.89693   0.88723  -0.05726
C          C       0.18351   0.84583   0.02909   0.21652
C          C       0.92764   0.71911   0.20022   0.61490
C          C       0.69442   0.56441   0.71730  -0.08217
C          C       0.46436   0.94833   0.25741  -0.16125
C          C       0.07781   0.60636   0.81494   0.57257
C          C       0.57366   0.63773   0.99605  -0.20309
C          C       0.37189   0.95066   0.31653   0.63581
C          C       0.71950   0.66585   0.04925   0.22823
C          C       0.70483   0.37971   0.71671   0.61450
C          C       0.66882   0.71115   0.19405  -0.04929
C          C       0.76894   0.70123   0.14784  -0.15943
C          C       0.71113   0.75269   0.29919   0.61404
C          C       0.39622   0.91293   0.15925   0.23709
C          C       0.67808   0.74682   0.71209   0.60316
C          C       0.47139   0.91685   0.09879  -0.19194
C          C       0.03711   0.97744   0.83771   0.59512
C          C       0.69812   0.01511   0.39800   0.59914
C          C       0.61245   0.98574   0.29464  -0.05148
C          C       0.68564   0.99169   0.23335  -0.12517
C          C       0.52239   0.68297   0.14033  -0.12023
C          C       0.61580   0.95802   0.13641  -0.05094
C          C       0.47540   0.64558   0.04270  -0.05920
C          C       0.21811   0.37270   0.08716   0.24348
C          C       0.83577   0.25430   0.02684  -0.07638
C          C       0.24777   0.29883   0.13591  -0.18242
C          C       0.89706   0.28378   0.12309  -0.05987
C          C       0.29161   0.33065   0.23446  -0.04621
C          C       0.22959   0.47706   0.13370  -0.16228
C          C       0.86277   0.07691   0.01427  -0.17493
C          C       0.27464   0.50855   0.23224  -0.02806
C          C       0.94066   0.20602   0.16678  -0.09520
C          C       0.92378   0.10307   0.11276  -0.05719
C          C       0.81649   0.15417   0.97091   0.21652
C          C       0.07236   0.28089   0.79978   0.61498
C          C       0.30559   0.43559   0.28270  -0.08199
C          C       0.53565   0.05167   0.74259  -0.16133
C          C       0.92219   0.39364   0.18506   0.57261
C          C       0.42634   0.36227   0.00394  -0.20336
C          C       0.62811   0.04934   0.68346   0.63568
C          C       0.28050   0.33415   0.95075   0.22834
C          C       0.29517   0.62029   0.28328   0.61454
C          C       0.33118   0.28885   0.80595  -0.04918
C          C       0.23107   0.29877   0.85216  -0.15961
C          C       0.28888   0.24731   0.70081   0.61393
C          C       0.60379   0.08707   0.84075   0.23697
C          C       0.32193   0.25318   0.28790   0.60343
C          C       0.52862   0.08315   0.90120  -0.19189
C          C       0.96289   0.02256   0.16229   0.59535
C          C       0.30189   0.98489   0.60199   0.59886
C          C       0.38755   0.01426   0.70536  -0.05137
C          C       0.31437   0.00831   0.76664  -0.12528
C          C       0.47761   0.31703   0.85967  -0.12015
C          C       0.38421   0.04198   0.86359  -0.05093
C          C       0.52461   0.35443   0.95730  -0.05903
O          O       0.06839   0.07379   0.89279  -0.47414
O          O       0.98434   0.95336   0.75008  -0.57047
O          O       0.84582   0.84473   0.52254  -0.85235
O          O       0.63410   0.72284   0.62461  -0.57824
O          O       0.70272   0.84421   0.76634  -0.47584
O          O       0.73130   0.31989   0.77382  -0.44861
O          O       0.66248   0.34647   0.62947  -0.57712
O          O       0.82674   0.65839   0.01049  -0.20734
O          O       0.84093   0.79641   0.34940  -0.63239
O          O       0.61476   0.74421   0.33404  -0.63917
O          O       0.98314   0.64945   0.23350  -0.50637
O          O      -0.00047   0.80611   0.20933  -0.63303
O          O       0.25188   0.87440   0.12692  -0.19400
O          O       0.12040   0.53871   0.86379  -0.47835
O          O       0.02254   0.58436   0.72912  -0.45831
O          O       0.33680   0.87031   0.33726  -0.64012
O          O       0.63208   0.01704   0.45662  -0.70517
O          O       0.83402   0.03548   0.42454  -0.65587
O          O       0.32301   0.03533   0.34090  -0.63512
O          O       0.93162   0.92621   0.10721  -0.47411
O          O       0.01567   0.04665   0.24991  -0.57070
O          O       0.15418   0.15527   0.47746  -0.85240
O          O       0.36591   0.27717   0.37538  -0.57852
O          O       0.29729   0.15579   0.23366  -0.47569
O          O       0.26870   0.68011   0.22618  -0.44842
O          O       0.33753   0.65353   0.37053  -0.57733
O          O       0.17326   0.34161   0.98951  -0.20743
O          O       0.15908   0.20359   0.65060  -0.63247
O          O       0.38524   0.25579   0.66596  -0.63893
O          O       0.01686   0.35055   0.76650  -0.50628
O          O       0.00048   0.19389   0.79066  -0.63326
O          O       0.74812   0.12560   0.87307  -0.19369
O          O       0.87961   0.46129   0.13620  -0.47822
O          O       0.97747   0.41564   0.27087  -0.45851
O          O       0.66320   0.12969   0.66274  -0.63987
O          O       0.36793   0.98296   0.54338  -0.70474
O          O       0.16598   0.96452   0.57545  -0.65594
O          O       0.67700   0.96467   0.65910  -0.63503

