data_crystal

_audit_creation_method 'AiiDA-DDEC plugin'

_cell_length_a         7.97366
_cell_length_b        14.73749
_cell_length_c        16.82173

_cell_angle_alpha     68.88247
_cell_angle_beta     78.13719
_cell_angle_gamma     81.01805

_symmetry_space_group_name_Hall 'P 1'
_symmetry_space_group_name_H-M  'P 1'

loop_
_symmetry_equiv_pos_as_xyz
 'x,y,z'

loop_
_atom_site_label
_atom_site_type_symbol
_atom_site_fract_x
_atom_site_fract_y
_atom_site_fract_z
_atom_site_charge
Cd         Cd      0.36628   0.97923   0.86076   1.01456
Cd         Cd      0.61716   0.18162   0.89599   1.00028
Cd         Cd      0.63371   0.02078   0.13924   1.01472
Cd         Cd      0.00000   0.00000  -0.00000   1.09345
Cd         Cd      0.38283   0.81839   0.10401   1.00030
H          H       0.61763   0.52185   0.93808   0.11340
H          H       0.86466   0.97935   0.45665   0.10454
H          H       0.67715   0.99286   0.98237   0.36985
H          H       0.50661   0.39835   0.89651   0.10536
H          H       0.55018   0.25664   0.07171   0.10016
H          H       0.14066   0.20696   0.49612   0.10487
H          H       0.88926   0.65103   0.06011   0.13544
H          H       0.70110   0.33616   0.13778   0.10486
H          H       0.02555   0.69526   0.69100   0.10898
H          H       0.62111   0.06297   0.32156   0.09638
H          H       0.32284   0.00715   0.01763   0.37008
H          H       0.01867   0.76461   0.10070   0.10324
H          H       0.74715   0.00071   0.78662   0.10329
H          H       0.44981   0.74337   0.92829   0.10040
H          H       0.85933   0.79305   0.50388   0.10496
H          H       0.02878   0.99321   0.34020   0.11948
H          H       0.37888   0.93704   0.67844   0.09649
H          H       0.04326   0.82472   0.35880   0.10766
H          H       0.32957   0.76845   0.34384   0.11880
H          H       0.23606   0.37201   0.31068   0.11667
H          H       0.42468   0.23384   0.40560   0.09423
H          H       0.25284  -0.00071   0.21339   0.10319
H          H       0.84985   0.57879   0.97477   0.11029
H          H       0.95673   0.17529   0.64120   0.10777
H          H       0.97445   0.30475   0.30900   0.10931
H          H       0.11073   0.34897   0.93990   0.13525
H          H       0.45572   0.60150   0.74468   0.11549
H          H       0.29889   0.66385   0.86222   0.10499
H          H       0.49339   0.60166   0.10349   0.10528
H          H       0.41445   0.05145   0.45845   0.11166
H          H       0.15014   0.42122   0.02523   0.11006
H          H       0.82520   0.21377   0.24847   0.10904
H          H       0.98132   0.23540   0.89931   0.10298
H          H       0.97121   0.00680   0.65980   0.11944
H          H       0.73317   0.25499   0.38915   0.09522
H          H       0.17479   0.78624   0.75153   0.10891
H          H       0.13533   0.02066   0.54335   0.10462
H          H       0.76393   0.62800   0.68932   0.11640
H          H       0.38236   0.47816   0.06192   0.11296
H          H       0.14586   0.74513   0.48534   0.09916
H          H       0.85413   0.25488   0.51467   0.09909
H          H       0.54427   0.39851   0.25532   0.11562
H          H       0.57531   0.76617   0.59440   0.09431
H          H       0.26682   0.74502   0.61086   0.09541
H          H       0.67042   0.23156   0.65616   0.11897
H          H       0.58554   0.94856   0.54155   0.11146
C          C       0.70151   0.45879   0.93053  -0.18256
C          C       0.30382   0.26445   0.15423   0.03435
C          C       0.95877   0.72172   0.74283  -0.14853
C          C       0.04123   0.27829   0.25717  -0.14862
C          C       0.63914   0.39115   0.90685   0.08339
C          C       0.69467   0.65378   0.74119  -0.13850
C          C       0.83965   0.82246   0.29396  -0.07009
C          C       0.69618   0.73556   0.84577   0.03440
C          C       0.71781   0.98872   0.73109   0.09455
C          C       0.51092   0.95406   0.67008   0.08997
C          C       0.90766   0.81480   0.36810  -0.10646
C          C       0.56034   0.78458   0.38569   0.04693
C          C       0.47893   0.23228   0.46042  -0.14904
C          C       0.51964   0.71881   0.87598  -0.13626
C          C       0.33087   0.19647   0.69688  -0.07362
C          C       0.68148   0.82502   0.94928   0.58970
C          C       0.91700   0.98984   0.50739  -0.12010
C          C       0.28079   0.75603   0.47739  -0.09044
C          C       0.95930   0.85302   0.20873   0.59174
C          C       0.09233   0.18520   0.63190  -0.10637
C          C       0.40900   0.20633   0.76784   0.58164
C          C       0.37020   0.21686   0.54139   0.07507
C          C       0.87164   0.44434   0.94692   0.14317
C          C       0.56500   0.32673   0.16077  -0.08543
C          C       0.36085   0.60886   0.09315   0.08325
C          C       0.61595   0.23081   0.60211  -0.12007
C          C       0.20281   0.01936   0.41268   0.14249
C          C       0.19379   0.20329   0.55203  -0.15581
C          C       0.30532   0.34623   0.25881  -0.13828
C          C       0.95574   0.80577   0.84424  -0.06410
C          C       0.21608   0.29690   0.22411   0.07710
C          C       0.28218   0.01129   0.26891   0.09445
C          C       0.48035   0.28120   0.12402  -0.13649
C          C       0.52296   0.63917   0.77202  -0.08598
C          C       0.95900   0.22823   0.22389  -0.10731
C          C       0.31851   0.17499   0.05072   0.58984
C          C       0.80620   0.79672   0.44797  -0.15576
C          C       0.21467   0.21306   0.12019  -0.07270
C          C       0.84161   0.99290   0.65921  -0.16684
C          C       0.29848   0.54121   0.06947  -0.18264
C          C       0.08299   0.01017   0.49261  -0.12010
C          C       0.52106   0.76773   0.53958  -0.14896
C          C       0.05206   0.86326   0.87540   0.58140
C          C       0.79718   0.98065   0.58732   0.14235
C          C       0.09564   0.70045   0.09166   0.10334
C          C       0.43965   0.21543   0.61431   0.04691
C          C       0.65067   0.24462   0.45132  -0.08918
C          C       0.62979   0.78315   0.45862   0.07495
C          C       0.04099   0.77177   0.77611  -0.10751
C          C       0.66912   0.80354   0.30312  -0.07361
C          C       0.92968   0.51020   0.98054  -0.11877
C          C       0.78532   0.78695   0.87981  -0.07260
C          C       0.62668   0.96031   0.59460  -0.18590
C          C       0.48907   0.04595   0.32992   0.09017
C          C       0.78392   0.70311   0.77589   0.07706
C          C       0.47703   0.36084   0.22799  -0.08581
C          C       0.71920   0.24397   0.52261  -0.09033
C          C       0.94793   0.13675   0.12460   0.58128
C          C       0.37331   0.03970   0.40540  -0.18597
C          C       0.12835   0.55567   0.05308   0.14320
C          C       0.34932   0.75539   0.54868  -0.08908
C          C       0.43499   0.67328   0.83923  -0.08539
C          C       0.38404   0.76920   0.39790  -0.11990
C          C       0.90435   0.29956   0.90834   0.10332
C          C       0.16034   0.17755   0.70604  -0.06999
C          C       0.59100   0.79367   0.23216   0.58163
C          C       0.15838   0.00711   0.34079  -0.16672
C          C       0.04425   0.19423   0.15577  -0.06410
C          C       0.07031   0.48980   0.01946  -0.11893
C          C       0.04069   0.14699   0.79128   0.59157
C          C       0.97580   0.36400   0.93205  -0.16288
C          C       0.02419   0.63601   0.06795  -0.16290
N          N       0.44535   0.03093   0.26273  -0.25632
N          N       0.26241   0.68904   0.10213  -0.25945
N          N       0.73758   0.31096   0.89787  -0.25988
N          N       0.55464   0.96908   0.73727  -0.25595
O          O       0.00899   0.12692   0.05227  -0.55833
O          O       0.71816   0.04489   0.99605  -0.86399
O          O       0.51785   0.87298   0.18098  -0.58552
O          O       0.88784   0.89909   0.14107  -0.61096
O          O       0.63699   0.76236   0.02283  -0.55429
O          O       0.28183   0.95512   0.00395  -0.86412
O          O       0.36866   0.08395   0.07327  -0.58763
O          O       0.81010   0.10313   0.17429  -0.58316
O          O       0.58442   0.71120   0.22965  -0.49982
O          O       0.63133   0.91606   0.92673  -0.58715
O          O       0.88129   0.16626   0.79058  -0.55478
O          O       0.11215   0.10092   0.85893  -0.61089
O          O       0.18989   0.89688   0.82572  -0.58342
O          O       0.48214   0.12703   0.81902  -0.58578
O          O       0.11871   0.83375   0.20942  -0.55505
O          O       0.36300   0.23765   0.97718  -0.55411
O          O       0.41557   0.28881   0.77035  -0.49930
O          O       0.99100   0.87309   0.94773  -0.55805

