data_crystal

_audit_creation_method 'AiiDA-DDEC plugin'

_cell_length_a         4.43802
_cell_length_b        12.66687
_cell_length_c        26.39455

_cell_angle_alpha     90.00828
_cell_angle_beta     90.03463
_cell_angle_gamma     89.98087

_symmetry_space_group_name_Hall 'P 1'
_symmetry_space_group_name_H-M  'P 1'

loop_
_symmetry_equiv_pos_as_xyz
 'x,y,z'

loop_
_atom_site_label
_atom_site_type_symbol
_atom_site_fract_x
_atom_site_fract_y
_atom_site_fract_z
_atom_site_charge
Cd         Cd      0.83535   0.85985   0.37818   0.93870
Cd         Cd      0.16454   0.35838   0.62398   0.94224
Cd         Cd      0.65895   0.85828   0.87820   0.94258
Cd         Cd      0.32948   0.35988   0.12405   0.93907
H          H       0.17469   0.96014   0.47974   0.09479
H          H       0.10136   0.10113   0.54604   0.12886
H          H       0.30405   0.19883   0.46789   0.12783
H          H       0.41219   0.06109   0.40264   0.09762
H          H       0.17802   0.63706   0.34599   0.10216
H          H       0.22304   0.50588   0.27523   0.12736
H          H       0.41009   0.63386   0.21283   0.12942
H          H       0.40271   0.76418   0.28415   0.09458
H          H       0.82508   0.46060   0.52257   0.09425
H          H       0.89810   0.60149   0.45630   0.12851
H          H       0.69530   0.69916   0.53444   0.12822
H          H       0.58752   0.56140   0.59965   0.09772
H          H       0.81936   0.13425   0.65550   0.10183
H          H       0.76796   0.00291   0.72602   0.12710
H          H       0.58007   0.12847   0.78972   0.12952
H          H       0.59407   0.25906   0.71851   0.09484
H          H       0.31942   0.96033   0.97956   0.09460
H          H       0.39212   0.10121   0.04588   0.12855
H          H       0.18912   0.19914   0.96793   0.12770
H          H       0.08179   0.06130   0.90268   0.09773
H          H       0.31785   0.63319   0.84642   0.10185
H          H       0.27175   0.50191   0.77571   0.12757
H          H       0.08394   0.62956   0.71312   0.12907
H          H       0.09290   0.75974   0.78448   0.09435
H          H       0.66919   0.46025   0.02252   0.09456
H          H       0.59551   0.60096   0.95613   0.12873
H          H       0.79888   0.69906   0.03421   0.12803
H          H       0.90709   0.56143   0.09953   0.09733
H          H       0.67477   0.13753   0.15584   0.10342
H          H       0.72509   0.00635   0.22647   0.12736
H          H       0.91297   0.13267   0.28975   0.12933
H          H       0.90038   0.26321   0.21850   0.09524
C          C       0.98974   0.01632   0.47732   0.08496
C          C       0.93597   0.08888   0.51621  -0.12754
C          C       0.68453   0.15354   0.51462  -0.02967
C          C       0.49326   0.14544   0.47249  -0.12757
C          C       0.56234   0.07162   0.43487   0.08308
C          C       0.63206   0.23360   0.55562   0.56541
C          C       0.01443   0.63507   0.31542   0.08378
C          C       0.03834   0.56207   0.27590  -0.12982
C          C       0.82568   0.56351   0.23696  -0.02937
C          C       0.59099   0.63560   0.24060  -0.12752
C          C       0.58007   0.70559   0.28140   0.09098
C          C       0.84432   0.48847   0.19307   0.56505
C          C       0.01014   0.51668   0.52500   0.08488
C          C       0.06372   0.58923   0.48610  -0.12777
C          C       0.31511   0.65386   0.48765  -0.02910
C          C       0.50622   0.64576   0.52981  -0.12847
C          C       0.43731   0.57191   0.56743   0.08308
C          C       0.36772   0.73389   0.44660   0.56452
C          C       0.98151   0.13169   0.68628   0.08286
C          C       0.95309   0.05889   0.72579  -0.12967
C          C       0.16351   0.05987   0.76512  -0.03009
C          C       0.40018   0.13112   0.76177  -0.12785
C          C       0.41536   0.20094   0.72095   0.08940
C          C       0.14176   0.98493   0.80900   0.56521
C          C       0.50440   0.01646   0.97718   0.08410
C          C       0.55770   0.08906   0.01610  -0.12696
C          C       0.80884   0.15381   0.01458  -0.02953
C          C       0.00003   0.14574   0.97247  -0.12766
C          C       0.93144   0.07182   0.93485   0.08309
C          C       0.86125   0.23393   0.05560   0.56507
C          C       0.48122   0.63108   0.81584   0.08296
C          C       0.45637   0.55809   0.77631  -0.12935
C          C       0.66831   0.55948   0.73729  -0.02995
C          C       0.90332   0.63142   0.74092  -0.12831
C          C       0.91509   0.70134   0.78174   0.09142
C          C       0.64876   0.48463   0.69331   0.56559
C          C       0.48416   0.51639   0.02490   0.08537
C          C       0.43028   0.58885   0.98596  -0.12710
C          C       0.17891   0.65354   0.98752  -0.03042
C          C       0.98795   0.64561   0.02965  -0.12776
C          C       0.05705   0.57183   0.06730   0.08370
C          C       0.12597   0.73349   0.94649   0.56558
C          C       0.51260   0.13519   0.18658   0.07979
C          C       0.53998   0.06238   0.22610  -0.12858
C          C       0.32915   0.06355   0.26530  -0.02955
C          C       0.09297   0.13504   0.26186  -0.12703
C          C       0.07867   0.20490   0.22105   0.08928
C          C       0.35031   0.98857   0.30918   0.56584
N          N       0.80067   0.00669   0.43725  -0.24380
N          N       0.79258   0.70767   0.31817  -0.26507
N          N       0.19918   0.50692   0.56508  -0.24542
N          N       0.20486   0.20367   0.68385  -0.26571
N          N       0.69345   0.00676   0.93715  -0.24578
N          N       0.70313   0.70361   0.81855  -0.26650
N          N       0.29524   0.50683   0.06495  -0.24403
N          N       0.28958   0.20736   0.18405  -0.26381
O          O       0.40024   0.29171   0.55119  -0.54226
O          O       0.82647   0.23530   0.59115  -0.57632
O          O       0.63666   0.49515   0.16000  -0.56478
O          O       0.06860   0.42570   0.19327  -0.54887
O          O       0.59967   0.79185   0.45102  -0.54259
O          O       0.17321   0.73571   0.41107  -0.57697
O          O       0.34833   0.99126   0.84229  -0.56614
O          O       0.91674   0.92254   0.80864  -0.54661
O          O       0.09308   0.29195   0.05121  -0.54258
O          O       0.66674   0.23577   0.09109  -0.57730
O          O       0.85565   0.49145   0.66014  -0.56567
O          O       0.42467   0.42184   0.69346  -0.54750
O          O       0.89413   0.79159   0.95096  -0.54249
O          O       0.31984   0.73515   0.91092  -0.57658
O          O       0.14341   0.99501   0.34237  -0.56541
O          O       0.57517   0.92608   0.30888  -0.54880

