data_crystal

_audit_creation_method 'AiiDA-DDEC plugin'

_cell_length_a        15.07798
_cell_length_b        15.07871
_cell_length_c        16.79771

_cell_angle_alpha     89.99974
_cell_angle_beta     90.00052
_cell_angle_gamma     119.99870

_symmetry_space_group_name_Hall 'P 1'
_symmetry_space_group_name_H-M  'P 1'

loop_
_symmetry_equiv_pos_as_xyz
 'x,y,z'

loop_
_atom_site_label
_atom_site_type_symbol
_atom_site_fract_x
_atom_site_fract_y
_atom_site_fract_z
_atom_site_charge
Fe         Fe      0.73891   0.26108   0.25000   1.39277
Fe         Fe      0.52220   0.26110   0.25000   1.39303
Fe         Fe      0.73890   0.47780   0.25000   1.39304
Fe         Fe      0.26108   0.73891   0.75001   1.39288
Fe         Fe      0.47779   0.73890   0.75001   1.39309
Fe         Fe      0.26109   0.52220   0.75001   1.39314
H          H       0.67090   0.05673   0.43979   0.12522
H          H       0.38585   0.32908   0.43981   0.12539
H          H       0.94328   0.61417   0.43976   0.12524
H          H       0.32905   0.94317   0.93984   0.12523
H          H       0.61419   0.67088   0.93978   0.12515
H          H       0.05664   0.38578   0.93973   0.12548
H          H       0.61417   0.94325   0.56021   0.12534
H          H       0.05674   0.67090   0.56021   0.12528
H          H       0.32909   0.38584   0.56022   0.12537
H          H       0.38577   0.05663   0.06027   0.12539
H          H       0.94319   0.32906   0.06017   0.12523
H          H       0.67094   0.61412   0.06019   0.12532
H          H       0.32908   0.94324   0.56021   0.12524
H          H       0.61415   0.67091   0.56020   0.12529
H          H       0.05672   0.38583   0.56024   0.12539
H          H       0.67096   0.05685   0.06016   0.12518
H          H       0.38579   0.32913   0.06025   0.12538
H          H       0.94331   0.61419   0.06025   0.12528
H          H       0.38581   0.05672   0.43979   0.12524
H          H       0.94327   0.32910   0.43980   0.12537
H          H       0.67091   0.61416   0.43979   0.12527
H          H       0.61424   0.94338   0.93974   0.12540
H          H       0.05676   0.67091   0.93982   0.12517
H          H       0.32904   0.38589   0.93984   0.12523
C          C       0.59639   0.03128   0.46660  -0.10092
C          C       0.43489   0.40359   0.46661  -0.10092
C          C       0.96873   0.56512   0.46659  -0.10094
C          C       0.40357   0.96866   0.96663  -0.10111
C          C       0.56513   0.59639   0.96660  -0.10067
C          C       0.03122   0.43485   0.96656  -0.10117
C          C       0.56511   0.96870   0.53340  -0.10082
C          C       0.03128   0.59640   0.53340  -0.10103
C          C       0.40360   0.43488   0.53341  -0.10082
C          C       0.43485   0.03123   0.03343  -0.10094
C          C       0.96866   0.40357   0.03338  -0.10079
C          C       0.59642   0.56510   0.03340  -0.10114
C          C       0.40358   0.96870   0.53340  -0.10098
C          C       0.56511   0.59641   0.53340  -0.10105
C          C       0.03128   0.43488   0.53342  -0.10105
C          C       0.59643   0.03135   0.03337  -0.10104
C          C       0.43485   0.40362   0.03343  -0.10085
C          C       0.96873   0.56513   0.03342  -0.10082
C          C       0.43486   0.03127   0.46659  -0.10081
C          C       0.96872   0.40360   0.46660  -0.10085
C          C       0.59640   0.56511   0.46660  -0.10080
C          C       0.56516   0.96878   0.96657  -0.10100
C          C       0.03129   0.59640   0.96661  -0.10107
C          C       0.40356   0.43491   0.96663  -0.10080
C          C       0.56556   0.13113   0.36197   0.61351
C          C       0.53160   0.06322   0.43241  -0.04474
C          C       0.56558   0.43443   0.36198   0.61355
C          C       0.53162   0.46838   0.43242  -0.04494
C          C       0.86887   0.43442   0.36196   0.61365
C          C       0.93679   0.46839   0.43241  -0.04485
C          C       0.43444   0.86887   0.86197   0.61355
C          C       0.46839   0.93678   0.93241  -0.04451
C          C       0.43443   0.56558   0.86198   0.61345
C          C       0.46838   0.53163   0.93243  -0.04488
C          C       0.13111   0.56556   0.86196   0.61352
C          C       0.06319   0.53159   0.93240  -0.04449
C          C       0.43442   0.86885   0.63804   0.61374
C          C       0.46838   0.93676   0.56759  -0.04489
C          C       0.13113   0.56557   0.63804   0.61374
C          C       0.06322   0.53161   0.56760  -0.04459
C          C       0.43442   0.56557   0.63803   0.61360
C          C       0.46838   0.53162   0.56759  -0.04475
C          C       0.56556   0.13114   0.13803   0.61370
C          C       0.53161   0.06323   0.06759  -0.04470
C          C       0.86887   0.43443   0.13804   0.61356
C          C       0.93676   0.46838   0.06759  -0.04474
C          C       0.56556   0.43442   0.13804   0.61355
C          C       0.53161   0.46838   0.06760  -0.04454
O          O       0.65516   0.15909   0.33382  -0.57518
O          O       0.50395   0.34484   0.33383  -0.57499
O          O       0.84089   0.49605   0.33382  -0.57515
O          O       0.34483   0.84090   0.83383  -0.57524
O          O       0.49606   0.65517   0.83383  -0.57528
O          O       0.15909   0.50393   0.83382  -0.57500
O          O       0.49605   0.84088   0.66617  -0.57521
O          O       0.15909   0.65517   0.66619  -0.57541
O          O       0.34483   0.50393   0.66618  -0.57510
O          O       0.50393   0.15910   0.16618  -0.57521
O          O       0.84090   0.34483   0.16618  -0.57517
O          O       0.65516   0.49605   0.16618  -0.57517
O          O       0.34483   0.84091   0.66619  -0.57528
O          O       0.49605   0.65516   0.66618  -0.57524
O          O       0.15911   0.50395   0.66618  -0.57504
O          O       0.65516   0.15910   0.16618  -0.57522
O          O       0.50393   0.34483   0.16618  -0.57523
O          O       0.84089   0.49606   0.16618  -0.57518
O          O       0.50394   0.15911   0.33383  -0.57506
O          O       0.84091   0.34483   0.33382  -0.57510
O          O       0.65517   0.49606   0.33383  -0.57522
O          O       0.49607   0.84090   0.83383  -0.57516
O          O       0.15908   0.65515   0.83382  -0.57537
O          O       0.34484   0.50394   0.83383  -0.57491
O          O       0.66667   0.33333   0.25000  -0.98246
O          O       0.33332   0.66667   0.75001  -0.98256

