data_crystal

_audit_creation_method 'AiiDA-DDEC plugin'

_cell_length_a        14.13165
_cell_length_b        13.83771
_cell_length_c        13.35347

_cell_angle_alpha     109.00804
_cell_angle_beta     90.16364
_cell_angle_gamma     89.89693

_symmetry_space_group_name_Hall 'P 1'
_symmetry_space_group_name_H-M  'P 1'

loop_
_symmetry_equiv_pos_as_xyz
 'x,y,z'

loop_
_atom_site_label
_atom_site_type_symbol
_atom_site_fract_x
_atom_site_fract_y
_atom_site_fract_z
_atom_site_charge
Zn         Zn      0.05466   0.90901   0.96000   0.83344
Zn         Zn      0.55449   0.09074   0.54089   0.83157
Zn         Zn      0.94532   0.09102   0.04000   0.83359
Zn         Zn      0.44550   0.90928   0.45911   0.83140
H          H       0.88866   0.58471   0.16456   0.27469
H          H       0.92651   0.72853   0.12254   0.12638
H          H       0.77527   0.00685   0.27302   0.13556
H          H       0.68695   0.72783   0.32267   0.13253
H          H       0.01423   0.29553   0.16620   0.11373
H          H       0.95519   0.47481   0.23251   0.13089
H          H       0.67653   0.35882   0.12186   0.13598
H          H       0.74949   0.18228   0.05502   0.11798
H          H       0.38903   0.41706   0.33355   0.27541
H          H       0.42594   0.27416   0.37866   0.12775
H          H       0.27536   0.99545   0.22795   0.13420
H          H       0.18815   0.27320   0.17411   0.13320
H          H       0.51373   0.70524   0.33125   0.11436
H          H       0.45443   0.52610   0.26462   0.13026
H          H       0.17631   0.64279   0.37582   0.13559
H          H       0.24947   0.81915   0.44264   0.11772
H          H       0.11129   0.41533   0.83547   0.27502
H          H       0.07347   0.27151   0.87749   0.12668
H          H       0.22471   0.99319   0.72701   0.13182
H          H       0.31304   0.27223   0.67736   0.13258
H          H       0.98572   0.70450   0.83379   0.11393
H          H       0.04477   0.52523   0.76752   0.13082
H          H       0.32342   0.64124   0.87817   0.13593
H          H       0.25045   0.81778   0.94499   0.11772
H          H       0.61098   0.58293   0.66646   0.27563
H          H       0.57404   0.72582   0.62134   0.12793
H          H       0.72460   0.00459   0.77209   0.13584
H          H       0.81186   0.72682   0.82592   0.13314
H          H       0.48628   0.29479   0.66878   0.11433
H          H       0.54560   0.47392   0.73540   0.13047
H          H       0.82370   0.35719   0.62418   0.13562
H          H       0.75052   0.18085   0.55738   0.11759
C          C       0.80909   0.71571   0.22243   0.22592
C          C       0.86962   0.76791   0.17483  -0.20175
C          C       0.85684   0.87227   0.19180  -0.01286
C          C       0.78479   0.92559   0.25913  -0.12031
C          C       0.72406   0.87305   0.30586  -0.01126
C          C       0.73506   0.76795   0.28701  -0.18480
C          C       0.76677   0.53648   0.21374   0.45914
C          C       0.94044   0.31356   0.15649   0.10595
C          C       0.90636   0.41341   0.19268  -0.17797
C          C       0.81027   0.43135   0.17905   0.01107
C          C       0.75169   0.34718   0.13150  -0.14975
C          C       0.79127   0.24985   0.09558   0.09670
C          C       0.91782   0.92377   0.13219   0.58632
C          C       0.64481   0.92762   0.37629   0.59161
C          C       0.30948   0.28601   0.27640   0.22636
C          C       0.36947   0.23438   0.32563  -0.20379
C          C       0.35660   0.13020   0.30930  -0.01117
C          C       0.28494   0.07657   0.24124  -0.11901
C          C       0.22463   0.12859   0.19312  -0.01217
C          C       0.23582   0.23347   0.21106  -0.18444
C          C       0.26657   0.46487   0.28409   0.45905
C          C       0.43998   0.68739   0.34084   0.10354
C          C       0.40581   0.58766   0.30453  -0.17621
C          C       0.30983   0.56998   0.31837   0.00916
C          C       0.25138   0.65425   0.36596  -0.14741
C          C       0.29105   0.75147   0.40191   0.09680
C          C       0.41703   0.07891   0.36998   0.58579
C          C       0.14531   0.07379   0.12267   0.59168
C          C       0.19087   0.28434   0.77761   0.22601
C          C       0.13036   0.23211   0.82520  -0.20190
C          C       0.14315   0.12776   0.80823  -0.01292
C          C       0.21520   0.07446   0.74089  -0.11700
C          C       0.27592   0.12702   0.69418  -0.01122
C          C       0.26492   0.23212   0.71304  -0.18512
C          C       0.23320   0.46356   0.78628   0.45993
C          C       0.05951   0.68648   0.84353   0.10580
C          C       0.09360   0.58663   0.80732  -0.17796
C          C       0.18969   0.56868   0.82098   0.01125
C          C       0.24825   0.65287   0.86851  -0.15050
C          C       0.20869   0.75020   0.90441   0.09735
C          C       0.08216   0.07626   0.86782   0.58604
C          C       0.35518   0.07244   0.62375   0.59185
C          C       0.69053   0.71401   0.72362   0.22645
C          C       0.63050   0.76559   0.67437  -0.20363
C          C       0.64340   0.86977   0.69072  -0.01148
C          C       0.71502   0.92347   0.75880  -0.12072
C          C       0.77534   0.87143   0.80690  -0.01150
C          C       0.76418   0.76654   0.78899  -0.18458
C          C       0.73345   0.53514   0.71589   0.45941
C          C       0.56003   0.31263   0.65919   0.10390
C          C       0.59421   0.41235   0.69549  -0.17621
C          C       0.69019   0.43003   0.68163   0.00924
C          C       0.74863   0.34575   0.63405  -0.14783
C          C       0.70896   0.24854   0.59810   0.09689
C          C       0.58297   0.92106   0.63004   0.58563
C          C       0.85465   0.92625   0.87734   0.59167
N          N       0.82684   0.61047   0.20268  -0.35945
N          N       0.88421   0.23339   0.10749  -0.19240
N          N       0.32716   0.39108   0.29536  -0.36121
N          N       0.38392   0.76764   0.39001  -0.19079
N          N       0.17312   0.38957   0.79734  -0.35971
N          N       0.11574   0.76665   0.89251  -0.19214
N          N       0.67285   0.60894   0.70466  -0.36152
N          N       0.61608   0.23237   0.61000  -0.19106
O          O       0.68465   0.55119   0.24691  -0.46881
O          O       0.98473   0.87044   0.07755  -0.55461
O          O       0.89609   0.01507   0.13886  -0.54712
O          O       0.65743   0.02100   0.43107  -0.53915
O          O       0.57106   0.87441   0.37555  -0.55922
O          O       0.18429   0.44993   0.25110  -0.46836
O          O       0.48409   0.13194   0.42487  -0.55249
O          O       0.39465   0.98786   0.36356  -0.54674
O          O       0.15773   0.98012   0.06870  -0.53919
O          O       0.07165   0.12706   0.12271  -0.55788
O          O       0.31531   0.44885   0.75309  -0.46935
O          O       0.01523   0.12960   0.92244  -0.55406
O          O       0.10391   0.98495   0.86114  -0.54699
O          O       0.34259   0.97905   0.56897  -0.53912
O          O       0.42893   0.12563   0.62447  -0.55949
O          O       0.81575   0.55007   0.74884  -0.46872
O          O       0.51590   0.86806   0.57512  -0.55245
O          O       0.60530   0.01212   0.63643  -0.54685
O          O       0.84223   0.01991   0.93133  -0.53904
O          O       0.92834   0.87300   0.87727  -0.55844

