data_crystal

_audit_creation_method 'AiiDA-DDEC plugin'

_cell_length_a         9.88754
_cell_length_b         9.85761
_cell_length_c        17.42331

_cell_angle_alpha     97.22341
_cell_angle_beta     97.48641
_cell_angle_gamma     99.28902

_symmetry_space_group_name_Hall 'P 1'
_symmetry_space_group_name_H-M  'P 1'

loop_
_symmetry_equiv_pos_as_xyz
 'x,y,z'

loop_
_atom_site_label
_atom_site_type_symbol
_atom_site_fract_x
_atom_site_fract_y
_atom_site_fract_z
_atom_site_charge
Zn         Zn      0.97051   0.04796   0.24589   0.60506
Zn         Zn      0.04611   0.97391   0.74456   0.60606
H          H       0.95539   0.34789   0.24119   0.07785
H          H       0.97859   0.51110   0.14648   0.10056
H          H       0.04249   0.17099   0.97931   0.09410
H          H       0.02695   0.02340   0.08186   0.07451
H          H       0.03189   0.39116   0.93514   0.08711
H          H       0.68637   0.12304   0.26560   0.07480
H          H       0.52052   0.07895   0.35631   0.08834
H          H       0.81233   0.86721   0.48100   0.09076
H          H       0.96480   0.91488   0.38405   0.07308
H          H       0.61099   0.92295   0.54328   0.08838
H          H       0.12311   0.69052   0.76530   0.07396
H          H       0.07993   0.52326   0.85595   0.08756
H          H       0.86818   0.81400   0.98031   0.09110
H          H       0.91499   0.96794   0.88343   0.07386
H          H       0.92332   0.61173   0.04223   0.08767
H          H       0.34610   0.96166   0.74210   0.07764
H          H       0.50919   0.98118   0.64771   0.10083
H          H       0.16942   0.03711   0.47709   0.09459
H          H       0.02193   0.02548   0.57929   0.07445
H          H       0.38878   0.02710   0.43442   0.08651
H          H       0.03372   0.18686   0.40541   0.08735
H          H       0.22428   0.35193   0.49112   0.12093
H          H       0.48423   0.27615   0.31517   0.11804
H          H       0.28389   0.10210   0.23813   0.08376
H          H       0.58624   0.42592   0.43471   0.08293
H          H       0.55196   0.65499   0.46595   0.09581
H          H       0.24681   0.67164   0.55273   0.11287
H          H       0.03112   0.71955   0.48056   0.07171
H          H       0.16297   0.63510   0.26655   0.07386
H          H       0.38344   0.58117   0.32941   0.11524
H          H       0.95866   0.79971   0.59858   0.07545
H          H       0.76323   0.61509   0.53493   0.12044
H          H       0.52371   0.76454   0.70728   0.11630
H          H       0.72911   0.94346   0.76577   0.07841
H          H       0.40998   0.58147   0.60295   0.08162
H          H       0.42627   0.34741   0.56500   0.09928
H          H       0.68741   0.26023   0.47602   0.10857
H          H       0.89973   0.19396   0.53838   0.07511
H          H       0.85782   0.38759   0.75724   0.07670
H          H       0.64245   0.46270   0.70384   0.11464
H          H       0.79991   0.96055   0.09865   0.07643
H          H       0.61702   0.76436   0.03385   0.12036
H          H       0.76433   0.52343   0.20729   0.11682
H          H       0.94184   0.72952   0.26668   0.07806
H          H       0.58231   0.40980   0.10217   0.08179
H          H       0.34888   0.42670   0.06407   0.09917
H          H       0.26181   0.69040   0.97582   0.10900
H          H       0.19604   0.90246   0.03875   0.07590
H          H       0.38855   0.85592   0.25749   0.07624
H          H       0.46348   0.64079   0.20348   0.11352
H          H       0.18514   0.03609   0.90406   0.08745
H          H       0.35119   0.22559   0.98994   0.12092
H          H       0.27680   0.48867   0.81425   0.11861
H          H       0.10201   0.28893   0.73693   0.08384
H          H       0.42712   0.58928   0.93434   0.08327
H          H       0.65518   0.55327   0.96536   0.09593
H          H       0.67612   0.24809   0.05184   0.11282
H          H       0.72414   0.03292   0.97938   0.07184
H          H       0.63057   0.16415   0.76537   0.07368
H          H       0.57595   0.38392   0.82851   0.11477
C          C       0.97145   0.31238   0.18180   0.01961
C          C       0.98411   0.40285   0.12853  -0.21466
C          C       0.00488   0.35715   0.04966   0.11145
C          C       0.02339   0.21487   0.03636  -0.21920
C          C       0.01220   0.13082   0.09296   0.02314
C          C       0.00501   0.43894   0.98964  -0.20314
C          C       0.71131   0.06943   0.31519   0.03104
C          C       0.61892   0.04386   0.36595  -0.22848
C          C       0.65196   0.97642   0.43324   0.10618
C          C       0.78126   0.92671   0.43537  -0.21626
C          C       0.86757   0.95398   0.38172   0.01418
C          C       0.56923   0.96486   0.49214  -0.20971
C          C       0.06966   0.71484   0.81479   0.03114
C          C       0.04476   0.62177   0.86554  -0.22826
C          C       0.97748   0.65408   0.93265   0.10594
C          C       0.92738   0.78345   0.93472  -0.21677
C          C       0.95412   0.87051   0.88111   0.01358
C          C       0.96621   0.57068   0.99153  -0.20736
C          C       0.31068   0.97515   0.68209   0.02031
C          C       0.40110   0.98576   0.62898  -0.21508
C          C       0.35553   0.00341   0.54935   0.11109
C          C       0.21326   0.02062   0.53487  -0.21919
C          C       0.12927   0.01155   0.59129   0.02311
C          C       0.43716   0.00234   0.48956  -0.20055
C          C       0.13643   0.20712   0.38861   0.07693
C          C       0.24355   0.30014   0.43580  -0.18674
C          C       0.37436   0.32644   0.41138   0.12393
C          C       0.38645   0.25724   0.33783  -0.18345
C          C       0.27589   0.16155   0.29412   0.07268
C          C       0.49142   0.42732   0.46093  -0.08579
C          C       0.46804   0.58271   0.48283  -0.06777
C          C       0.33426   0.61881   0.44718   0.12999
C          C       0.23241   0.65908   0.48907  -0.19084
C          C       0.11091   0.68725   0.44847   0.08674
C          C       0.18399   0.64125   0.33003   0.08046
C          C       0.30788   0.61106   0.36537  -0.19547
C          C       0.85969   0.78980   0.62016   0.06022
C          C       0.74967   0.68648   0.58512  -0.18023
C          C       0.62264   0.67522   0.61406   0.12058
C          C       0.61807   0.76876   0.68104  -0.18768
C          C       0.73255   0.87099   0.71351   0.08756
C          C       0.49880   0.57312   0.57218  -0.08379
C          C       0.51530   0.41591   0.55016  -0.06838
C          C       0.64510   0.36984   0.58416   0.11611
C          C       0.72099   0.29298   0.53855  -0.19022
C          C       0.84139   0.25482   0.57399   0.08489
C          C       0.81726   0.36054   0.69493   0.07596
C          C       0.69571   0.40260   0.66477  -0.19943
C          C       0.78990   0.86110   0.12020   0.05970
C          C       0.68746   0.75067   0.08457  -0.17941
C          C       0.67590   0.62312   0.11360   0.11959
C          C       0.76858   0.61828   0.18106  -0.18815
C          C       0.86997   0.73320   0.21409   0.08824
C          C       0.57396   0.49924   0.07149  -0.08219
C          C       0.41714   0.51631   0.04947  -0.06920
C          C       0.37130   0.64601   0.08380   0.11648
C          C       0.29464   0.72300   0.03843  -0.19156
C          C       0.25661   0.84316   0.07420   0.08580
C          C       0.36175   0.81647   0.19507   0.07582
C          C       0.40375   0.69513   0.16457  -0.19845
C          C       0.20597   0.13922   0.88735   0.07722
C          C       0.29961   0.24577   0.93462  -0.18724
C          C       0.32664   0.37722   0.91039   0.12368
C          C       0.25752   0.39040   0.83683  -0.18420
C          C       0.16137   0.28024   0.79297   0.07185
C          C       0.42805   0.49360   0.96024  -0.08596
C          C       0.58285   0.46917   0.98213  -0.06771
C          C       0.61832   0.33513   0.94632   0.12876
C          C       0.66126   0.23359   0.98815  -0.18949
C          C       0.68953   0.11237   0.94737   0.08629
C          C       0.63858   0.18508   0.82892   0.08026
C          C       0.60809   0.30866   0.86441  -0.19495
N          N       0.98048   0.17359   0.16581  -0.31280
N          N       0.83958   0.03150   0.32250  -0.31890
N          N       0.03129   0.84318   0.82199  -0.31906
N          N       0.17209   0.98331   0.66512  -0.31224
N          N       0.15112   0.13533   0.31955  -0.23136
N          N       0.08461   0.67858   0.37008  -0.28714
N          N       0.85251   0.88440   0.68275  -0.22976
N          N       0.89166   0.28763   0.65094  -0.29606
N          N       0.88333   0.85382   0.18346  -0.23062
N          N       0.28927   0.89213   0.15128  -0.29650
N          N       0.13439   0.15492   0.81826  -0.23079
N          N       0.67851   0.08601   0.86891  -0.28656

