data_crystal

_audit_creation_method 'AiiDA-DDEC plugin'

_cell_length_a        16.73812
_cell_length_b        16.73684
_cell_length_c        16.73638

_cell_angle_alpha     68.32957
_cell_angle_beta     68.33612
_cell_angle_gamma     68.32551

_symmetry_space_group_name_Hall 'P 1'
_symmetry_space_group_name_H-M  'P 1'

loop_
_symmetry_equiv_pos_as_xyz
 'x,y,z'

loop_
_atom_site_label
_atom_site_type_symbol
_atom_site_fract_x
_atom_site_fract_y
_atom_site_fract_z
_atom_site_charge
Cu         Cu      0.12270   0.14329   0.56848   0.90854
Cu         Cu      0.13235   0.15352   0.70629   0.90728
Cu         Cu      0.56840   0.12280   0.14335   0.90786
Cu         Cu      0.70620   0.13245   0.15361   0.91416
Cu         Cu      0.14322   0.56847   0.12272   0.90837
Cu         Cu      0.15336   0.70629   0.13245   0.90740
H          H       0.40919   0.12401   0.65473   0.12613
H          H       0.64511   0.10779   0.43096   0.13239
H          H       0.39560   0.11422   0.40739   0.13974
H          H       0.86715   0.16799   0.87611   0.14037
H          H       0.85120   0.13912   0.63823   0.13101
H          H       0.63396   0.11451   0.87872   0.13104
H          H       0.51833   0.08843   0.73735   0.07419
H          H       0.48047   0.20015   0.67334   0.10159
H          H       0.56893   0.19219   0.76854   0.09789
H          H       0.61652   0.23503   0.65284   0.07650
H          H       0.75908   0.12432   0.57608   0.04384
H          H       0.86260   0.99782   0.66475   0.13758
H          H       0.78380   0.93508   0.70593   0.13113
H          H       0.84058   0.96137   0.59011   0.13178
H          H       0.70227   0.03029   0.54291   0.09821
H          H       0.65136   0.98697   0.65752   0.07687
H          H       0.65438   0.40932   0.12449   0.12555
H          H       0.43047   0.64518   0.10831   0.13197
H          H       0.40725   0.39564   0.11436   0.13985
H          H       0.87599   0.86720   0.16801   0.14037
H          H       0.63804   0.85129   0.13931   0.13308
H          H       0.87854   0.63402   0.11452   0.13134
H          H       0.73680   0.51839   0.08874   0.07373
H          H       0.67302   0.48058   0.20056   0.10136
H          H       0.76847   0.56894   0.19221   0.09794
H          H       0.65286   0.61659   0.23533   0.07549
H          H       0.57581   0.75918   0.12481   0.04412
H          H       0.66434   0.86269   0.99814   0.13729
H          H       0.70524   0.78394   0.93538   0.13089
H          H       0.58945   0.84077   0.96197   0.13167
H          H       0.54230   0.70244   0.03095   0.09742
H          H       0.65685   0.65144   0.98748   0.07657
H          H       0.12369   0.65473   0.40931   0.12958
H          H       0.10749   0.43093   0.64527   0.13153
H          H       0.11421   0.40730   0.39565   0.13985
H          H       0.16790   0.87606   0.86718   0.14030
H          H       0.13905   0.63818   0.85124   0.13294
H          H       0.11433   0.87871   0.63399   0.13121
H          H       0.08789   0.73738   0.51851   0.07362
H          H       0.19961   0.67349   0.48047   0.10203
H          H       0.19174   0.76868   0.56889   0.09811
H          H       0.23479   0.65300   0.61636   0.07655
H          H       0.12424   0.57603   0.75914   0.04437
H          H       0.99782   0.66474   0.86268   0.13724
H          H       0.93496   0.70580   0.78399   0.13081
H          H       0.96140   0.58997   0.84084   0.13165
H          H       0.03014   0.54282   0.70245   0.09772
H          H       0.98671   0.65744   0.65160   0.07658
C          C       0.29600   0.12805   0.57418   0.58310
C          C       0.53506   0.11462   0.55086   0.17561
C          C       0.39369   0.11991   0.53506  -0.01664
C          C       0.52564   0.10813   0.41139  -0.02018
C          C       0.44350   0.11999   0.58663  -0.19382
C          C       0.57528   0.10876   0.46228  -0.17670
C          C       0.43432   0.11342   0.44745  -0.12289
C          C       0.56907   0.10835   0.31580   0.58814
C          C       0.86758   0.15414   0.75253  -0.02263
C          C       0.83003   0.15750   0.84134  -0.11448
C          C       0.82022   0.13916   0.70779  -0.18532
C          C       0.70303   0.14583   0.98089   0.58734
C          C       0.96082   0.16156   0.70626   0.58619
C          C       0.69861   0.12752   0.84170  -0.16986
C          C       0.73586   0.12355   0.75256   0.17364
C          C       0.74440   0.14538   0.88530  -0.02392
C          C       0.53989   0.14427   0.68218  -0.08630
C          C       0.60213   0.17447   0.70501  -0.09015
C          C       0.73353   0.07154   0.63268   0.12991
C          C       0.80988   0.98688   0.64943  -0.43612
C          C       0.66813   0.04733   0.60666  -0.11749
C          C       0.57404   0.29609   0.12824   0.58318
C          C       0.55043   0.53516   0.11515   0.17567
C          C       0.53482   0.39377   0.12024  -0.01764
C          C       0.41110   0.52569   0.10845  -0.02073
C          C       0.58629   0.44360   0.12045  -0.19286
C          C       0.46187   0.57535   0.10924  -0.17631
C          C       0.44722   0.43438   0.11369  -0.12184
C          C       0.31554   0.56913   0.10849   0.58830
C          C       0.75238   0.86766   0.15422  -0.02234
C          C       0.84119   0.83009   0.15755  -0.11448
C          C       0.70761   0.82029   0.13930  -0.18717
C          C       0.98073   0.70311   0.14579   0.58830
C          C       0.70613   0.96091   0.16164   0.58598
C          C       0.84151   0.69866   0.12757  -0.17013
C          C       0.75235   0.73593   0.12368   0.17353
C          C       0.88514   0.74445   0.14540  -0.02430
C          C       0.68179   0.53999   0.14465  -0.08397
C          C       0.70485   0.60218   0.17469  -0.08918
C          C       0.63229   0.73362   0.07196   0.12859
C          C       0.64888   0.81000   0.98729  -0.43522
C          C       0.60611   0.66825   0.04788  -0.11508
C          C       0.12791   0.57416   0.29607   0.58268
C          C       0.11433   0.55084   0.53519   0.17617
C          C       0.11974   0.53502   0.39378  -0.01691
C          C       0.10798   0.41134   0.52573  -0.02032
C          C       0.11971   0.58661   0.44361  -0.19687
C          C       0.10852   0.46225   0.57541  -0.17580
C          C       0.11332   0.44738   0.43440  -0.12273
C          C       0.10824   0.31573   0.56917   0.58828
C          C       0.15405   0.75248   0.86762  -0.02283
C          C       0.15742   0.84128   0.83007  -0.11426
C          C       0.13907   0.70774   0.82025  -0.18670
C          C       0.14573   0.98082   0.70307   0.58817
C          C       0.16149   0.70620   0.96086   0.58605
C          C       0.12737   0.84167   0.69864  -0.17030
C          C       0.12341   0.75253   0.73590   0.17373
C          C       0.14527   0.88525   0.74443  -0.02430
C          C       0.14381   0.68226   0.53996  -0.08640
C          C       0.17414   0.70510   0.60210  -0.08945
C          C       0.07141   0.63263   0.73363   0.12840
C          C       0.98683   0.64934   0.81003  -0.43551
C          C       0.04712   0.60660   0.66829  -0.11644
N          N       0.58632   0.11957   0.59843  -0.13635
N          N       0.68573   0.10363   0.71346  -0.17472
N          N       0.59794   0.58645   0.12016  -0.13892
N          N       0.71318   0.68580   0.10384  -0.17474
N          N       0.11926   0.59845   0.58642  -0.13698
N          N       0.10344   0.71343   0.68580  -0.17444
O          O       0.26209   0.13506   0.65451  -0.54070
O          O       0.25328   0.12824   0.52443  -0.53630
O          O       0.52200   0.10355   0.27312  -0.53531
O          O       0.64938   0.11523   0.28323  -0.54753
O          O       0.00254   0.16997   0.75206  -0.53877
O          O       0.75187   0.14862   0.02281  -0.53561
O          O       0.99296   0.15635   0.62538  -0.54463
O          O       0.62169   0.14197   0.01395  -0.54666
O          O       0.65438   0.26221   0.13519  -0.54187
O          O       0.52435   0.25337   0.12835  -0.53661
O          O       0.27295   0.52204   0.10359  -0.53488
O          O       0.28293   0.64946   0.11533  -0.54637
O          O       0.75194   0.00261   0.17005  -0.53994
O          O       0.02259   0.75196   0.14863  -0.53493
O          O       0.62526   0.99306   0.15642  -0.54498
O          O       0.01385   0.62179   0.14183  -0.54673
O          O       0.13487   0.65450   0.26221  -0.54063
O          O       0.12815   0.52442   0.25332  -0.53607
O          O       0.10347   0.27304   0.52209  -0.53524
O          O       0.11513   0.28315   0.64949  -0.54632
O          O       0.16981   0.75204   0.00262  -0.53868
O          O       0.14852   0.02272   0.75192  -0.53482
O          O       0.15637   0.62529   0.99298  -0.54478
O          O       0.14188   0.01390   0.62171  -0.54651

