data_crystal

_audit_creation_method 'AiiDA-DDEC plugin'

_cell_length_a        12.14943
_cell_length_b        12.14955
_cell_length_c        12.14949

_cell_angle_alpha     91.57166
_cell_angle_beta     91.57134
_cell_angle_gamma     91.57186

_symmetry_space_group_name_Hall 'P 1'
_symmetry_space_group_name_H-M  'P 1'

loop_
_symmetry_equiv_pos_as_xyz
 'x,y,z'

loop_
_atom_site_label
_atom_site_type_symbol
_atom_site_fract_x
_atom_site_fract_y
_atom_site_fract_z
_atom_site_charge
Zn         Zn      0.72359   0.72358   0.72358   0.56333
Zn         Zn      0.21917   0.21917   0.21917   0.56387
H          H       0.25373   0.07439   0.98020   0.11150
H          H       0.72348   0.44791   0.76299   0.10880
H          H       0.45816   0.18859   0.36595   0.11068
H          H       0.68105   0.72279  -0.00145   0.10973
H          H       0.70915   0.29846   0.08591   0.10288
H          H       0.59929   0.30145   0.98407   0.09557
H          H       0.70077   0.09762   0.08837   0.09754
H          H       0.72260   0.14122   0.95276   0.10956
H          H       0.49774   0.06338   0.03972   0.09854
H          H       0.52269   0.10301   0.90244   0.11049
H          H       0.14417   0.45778   0.84118   0.09640
H          H       0.14849   0.35697   0.73036   0.10323
H          H       0.34943   0.35539   0.74046   0.09833
H          H       0.30504   0.49070   0.71855   0.10944
H          H       0.34146   0.54087   0.91876   0.11030
H          H       0.38141   0.40368   0.94388   0.09775
H          H       0.98020   0.25373   0.07439   0.11140
H          H       0.76300   0.72347   0.44791   0.10865
H          H       0.36595   0.45815   0.18859   0.11083
H          H      -0.00145   0.68104   0.72279   0.10964
H          H       0.08592   0.70914   0.29846   0.10269
H          H       0.98408   0.59929   0.30146   0.09563
H          H       0.08838   0.70076   0.09762   0.09751
H          H       0.95277   0.72260   0.14123   0.10941
H          H       0.03972   0.49773   0.06338   0.09860
H          H       0.90244   0.52270   0.10301   0.11027
H          H       0.84119   0.14417   0.45778   0.09657
H          H       0.73036   0.14849   0.35698   0.10307
H          H       0.74046   0.34943   0.35539   0.09819
H          H       0.71856   0.30504   0.49070   0.10949
H          H       0.91876   0.34146   0.54087   0.11051
H          H       0.94388   0.38141   0.40368   0.09785
H          H       0.07439   0.98020   0.25373   0.11132
H          H       0.44791   0.76299   0.72347   0.10867
H          H       0.18859   0.36595   0.45815   0.11065
H          H       0.72280  -0.00146   0.68104   0.10953
H          H       0.29847   0.08592   0.70914   0.10272
H          H       0.30146   0.98407   0.59929   0.09571
H          H       0.09762   0.08837   0.70076   0.09741
H          H       0.14123   0.95276   0.72260   0.10956
H          H       0.06338   0.03971   0.49773   0.09836
H          H       0.10302   0.90243   0.52270   0.11052
H          H       0.45779   0.84118   0.14417   0.09660
H          H       0.35698   0.73036   0.14849   0.10313
H          H       0.35539   0.74046   0.34943   0.09824
H          H       0.49070   0.71855   0.30504   0.10974
H          H       0.54088   0.91876   0.34146   0.11044
H          H       0.40369   0.94388   0.38141   0.09759
C          C       0.22859   0.15715   0.96328   0.09066
C          C       0.64602   0.47983   0.78986   0.10401
C          C       0.47533   0.21423   0.28341   0.09049
C          C       0.65421   0.80002   0.96607   0.10343
C          C       0.63412   0.25577   0.05288  -0.11585
C          C       0.66176   0.13764   0.01803  -0.18754
C          C       0.56046   0.06880   0.97662  -0.11645
C          C       0.19050   0.38962   0.80594  -0.11636
C          C       0.30866   0.42535   0.77931  -0.18640
C          C       0.37638   0.46694   0.88124  -0.11563
C          C       0.96328   0.22859   0.15716   0.09077
C          C       0.78987   0.64602   0.47983   0.10382
C          C       0.28341   0.47532   0.21423   0.09049
C          C       0.96607   0.65420   0.80002   0.10332
C          C       0.05288   0.63411   0.25577  -0.11573
C          C       0.01803   0.66175   0.13764  -0.18753
C          C       0.97662   0.56046   0.06881  -0.11596
C          C       0.80594   0.19050   0.38962  -0.11635
C          C       0.77931   0.30866   0.42535  -0.18648
C          C       0.88124   0.37637   0.46694  -0.11573
C          C       0.15716   0.96328   0.22859   0.09060
C          C       0.47983   0.78986   0.64602   0.10399
C          C       0.21423   0.28341   0.47532   0.09051
C          C       0.80003   0.96606   0.65421   0.10315
C          C       0.25578   0.05288   0.63412  -0.11594
C          C       0.13764   0.01803   0.66175  -0.18747
C          C       0.06881   0.97661   0.56046  -0.11583
C          C       0.38963   0.80594   0.19050  -0.11634
C          C       0.42536   0.77930   0.30865  -0.18656
C          C       0.46695   0.88124   0.37637  -0.11564
N          N       0.22373   0.19908   0.86291  -0.27839
N          N       0.18840   0.30271   0.88573   0.24277
N          N       0.17611   0.32457   0.99508  -0.17038
N          N       0.20051   0.22977   0.04292  -0.18866
N          N       0.56551   0.41909   0.83274  -0.28240
N          N       0.48883   0.49623   0.85273   0.24492
N          N       0.51866   0.59852   0.82052  -0.17508
N          N       0.62044   0.58686   0.78167  -0.18595
N          N       0.57622   0.22348   0.24327  -0.28173
N          N       0.55357   0.25783   0.13911   0.23786
N          N       0.44376   0.26488   0.11528  -0.17267
N          N       0.39552   0.23845   0.20931  -0.18889
N          N       0.60917   0.88004   0.02572  -0.28381
N          N       0.59013   0.95651   0.94808   0.24540
N          N       0.62496   0.92710   0.84666  -0.17566
N          N       0.66452   0.82573   0.85930  -0.18417
N          N       0.86291   0.22373   0.19908  -0.27886
N          N       0.88573   0.18840   0.30271   0.24270
N          N       0.99509   0.17611   0.32458  -0.17000
N          N       0.04292   0.20051   0.22978  -0.18850
N          N       0.83275   0.56551   0.41910  -0.28257
N          N       0.85273   0.48883   0.49623   0.24508
N          N       0.82052   0.51865   0.59852  -0.17469
N          N       0.78167   0.62044   0.58686  -0.18607
N          N       0.24327   0.57622   0.22348  -0.28185
N          N       0.13911   0.55357   0.25783   0.23768
N          N       0.11528   0.44376   0.26488  -0.17248
N          N       0.20931   0.39552   0.23846  -0.18880
N          N       0.02572   0.60916   0.88004  -0.28354
N          N       0.94809   0.59012   0.95651   0.24547
N          N       0.84666   0.62495   0.92710  -0.17569
N          N       0.85931   0.66451   0.82573  -0.18449
N          N       0.19909   0.86291   0.22373  -0.27851
N          N       0.30271   0.88573   0.18840   0.24281
N          N       0.32458   0.99508   0.17611  -0.16996
N          N       0.22978   0.04292   0.20051  -0.18901
N          N       0.41910   0.83274   0.56551  -0.28293
N          N       0.49624   0.85272   0.48883   0.24491
N          N       0.59853   0.82052   0.51865  -0.17464
N          N       0.58687   0.78167   0.62044  -0.18570
N          N       0.22348   0.24326   0.57622  -0.28218
N          N       0.25783   0.13911   0.55357   0.23801
N          N       0.26488   0.11528   0.44376  -0.17235
N          N       0.23845   0.20931   0.39552  -0.18879
N          N       0.88004   0.02571   0.60917  -0.28394
N          N       0.95652   0.94808   0.59012   0.24541
N          N       0.92711   0.84666   0.62496  -0.17518
N          N       0.82574   0.85930   0.66452  -0.18437

