data_crystal

_audit_creation_method 'AiiDA-DDEC plugin'

_cell_length_a        11.22509
_cell_length_b        11.75133
_cell_length_c        11.40042

_cell_angle_alpha     69.30097
_cell_angle_beta     88.69659
_cell_angle_gamma     71.31685

_symmetry_space_group_name_Hall 'P 1'
_symmetry_space_group_name_H-M  'P 1'

loop_
_symmetry_equiv_pos_as_xyz
 'x,y,z'

loop_
_atom_site_label
_atom_site_type_symbol
_atom_site_fract_x
_atom_site_fract_y
_atom_site_fract_z
_atom_site_charge
Cu         Cu      0.30743   0.63813   0.25963   0.29983
Cu         Cu      0.36864   0.20136   0.56286   0.27924
Cu         Cu      0.53188   0.89143   0.98030   0.28222
Cu         Cu      0.69257   0.36181   0.74035   0.29998
Cu         Cu      0.63137   0.79858   0.43712   0.27915
Cu         Cu      0.46813   0.10853   0.01967   0.28213
H          H       0.86003   0.40786   0.31222   0.13806
H          H       0.96515   0.46312   0.37309   0.15166
H          H       0.80517   0.50209   0.40767   0.15067
H          H       0.64194   0.63444   0.16532   0.28499
H          H       0.40766   0.93035   0.73094   0.27100
H          H       0.75286   0.98019   0.91150   0.13961
H          H       0.87406   0.96200   0.02056   0.14230
H          H       0.91293   0.88850   0.90689   0.13619
H          H       0.08254   0.58308   0.26851   0.12246
H          H       0.08665   0.70073   0.12393   0.11659
H          H       0.83649   0.86418   0.26618   0.11833
H          H       0.86573   0.01145   0.36915   0.09689
H          H       0.08636   0.98940   0.43614   0.11253
H          H       0.35687   0.83762   0.32095   0.12689
H          H       0.35488   0.70943   0.45706   0.12425
H          H       0.30333   0.67493   0.71615   0.13657
H          H       0.46667   0.62991   0.69276   0.15046
H          H       0.41188   0.69984   0.80758   0.15537
H          H       0.29446   0.20792   0.31750   0.13935
H          H       0.33934   0.08816   0.24759   0.13196
H          H       0.18289   0.14048   0.28656   0.13943
H          H       0.13987   0.59209   0.68781   0.13803
H          H       0.03479   0.53678   0.62694   0.15176
H          H       0.19476   0.49787   0.59234   0.15051
H          H       0.35802   0.36553   0.83468   0.28505
H          H       0.59234   0.06958   0.26901   0.27092
H          H       0.24721   0.01967   0.08845   0.13974
H          H       0.12598   0.03788   0.97940   0.14247
H          H       0.08714   0.11133   0.09311   0.13650
H          H       0.91743   0.41681   0.73156   0.12268
H          H       0.91337   0.29909   0.87612   0.11670
H          H       0.16349   0.13575   0.73378   0.11842
H          H       0.13424   0.98854   0.63074   0.09676
H          H       0.91361   0.01063   0.56373   0.11247
H          H       0.64309   0.16239   0.67895   0.12675
H          H       0.64511   0.29056   0.54284   0.12426
H          H       0.69661   0.32504   0.28374   0.13649
H          H       0.53328   0.37004   0.30713   0.15037
H          H       0.58808   0.30008   0.19233   0.15531
H          H       0.70557   0.79205   0.68244   0.13939
H          H       0.66065   0.91181   0.75235   0.13184
H          H       0.81712   0.85952   0.71338   0.13953
C          C       0.86745   0.48950   0.33394  -0.43468
C          C       0.83388   0.61002   0.21953   0.19622
C          C       0.90082   0.69383   0.16317  -0.12089
C          C       0.81906   0.79464   0.05932   0.19918
C          C       0.84096   0.91230   0.96948  -0.42971
C          C       0.03048   0.68249   0.20517  -0.24245
C          C       0.03695   0.77203   0.27136   0.26207
C          C       0.93039   0.85978   0.29424  -0.19748
C          C       0.94732   0.94044   0.35262  -0.02350
C          C       0.06949   0.92870   0.38990  -0.20867
C          C       0.17249   0.83669   0.36782   0.26803
C          C       0.30843   0.81403   0.40720  -0.25179
C          C       0.38837   0.70265   0.71338  -0.43708
C          C       0.36622   0.83374   0.61631   0.19545
C          C       0.32981   0.88514   0.48633  -0.12613
C          C       0.32043   0.01687   0.44573   0.19917
C          C       0.28234   0.11889   0.31756  -0.43069
C          C       0.47241   0.04129   0.83841  -0.14268
C          C       0.39091   0.71061   0.12745  -0.13543
C          C       0.33616   0.36597   0.44784  -0.11593
C          C       0.13249   0.51044   0.66608  -0.43454
C          C       0.16609   0.38990   0.78048   0.19636
C          C       0.09918   0.30607   0.83683  -0.12086
C          C       0.18096   0.20525   0.94067   0.19911
C          C       0.15910   0.08757   0.03049  -0.43029
C          C       0.96951   0.31739   0.79486  -0.24258
C          C       0.96304   0.22789   0.72862   0.26173
C          C       0.06959   0.14017   0.70571  -0.19763
C          C       0.05266   0.05953   0.64729  -0.02320
C          C       0.93049   0.07130   0.60999  -0.20874
C          C       0.82749   0.16329   0.63210   0.26796
C          C       0.69155   0.18596   0.59270  -0.25138
C          C       0.61158   0.29730   0.28652  -0.43691
C          C       0.63375   0.16622   0.38361   0.19591
C          C       0.67018   0.11483   0.51359  -0.12673
C          C       0.67957   0.98310   0.55420   0.19968
C          C       0.71767   0.88109   0.68238  -0.43091
C          C       0.52762   0.95866   0.16156  -0.14271
C          C       0.60907   0.28937   0.87254  -0.13572
C          C       0.66384   0.63398   0.55214  -0.11560
N          N       0.70921   0.77312   0.05159  -0.19182
N          N       0.72102   0.66017   0.14800  -0.14655
N          N       0.15550   0.76175   0.30711  -0.29610
N          N       0.37788   0.93195   0.64606  -0.13919
N          N       0.35064   0.04406   0.54440  -0.20372
N          N       0.43252   0.12115   0.73710  -0.30760
N          N       0.44315   0.76693   0.04840  -0.33893
N          N       0.32404   0.47038   0.37461  -0.34582
N          N       0.29079   0.22681   0.94840  -0.19172
N          N       0.27896   0.33976   0.85200  -0.14688
N          N       0.84448   0.23820   0.69285  -0.29606
N          N       0.62211   0.06800   0.35388  -0.13919
N          N       0.64936   0.95589   0.45555  -0.20399
N          N       0.56749   0.87880   0.26287  -0.30762
N          N       0.55682   0.23307   0.95158  -0.33869
N          N       0.67596   0.52956   0.62537  -0.34612

