data_crystal

_audit_creation_method 'AiiDA-DDEC plugin'

_cell_length_a        12.12631
_cell_length_b        13.06623
_cell_length_c        14.16519

_cell_angle_alpha     80.23217
_cell_angle_beta     64.46377
_cell_angle_gamma     62.59413

_symmetry_space_group_name_Hall 'P 1'
_symmetry_space_group_name_H-M  'P 1'

loop_
_symmetry_equiv_pos_as_xyz
 'x,y,z'

loop_
_atom_site_label
_atom_site_type_symbol
_atom_site_fract_x
_atom_site_fract_y
_atom_site_fract_z
_atom_site_charge
V          V       0.14066   0.52460   0.20641   1.79148
V          V       0.16048   0.48635   0.78434   1.98721
V          V       0.93559   0.55789   0.38410   1.72219
V          V       0.87836   0.47440   0.78672   1.80582
V          V       0.43019   0.51694   0.20700   1.98570
V          V       0.87809   0.44380   0.61133   1.70937
V          V       0.60713   0.17969   0.54041   1.95458
V          V       0.62917   0.76317   0.47935   1.96714
V          V       0.49640   0.42143   0.43465   1.23831
V          V       0.32781   0.81756   0.45578   1.93691
V          V       0.87780   0.23436   0.51795   1.96955
V          V       0.36506   0.58541   0.56164   1.30993
Ni         Ni      0.06191   0.66920   0.98453   0.95566
Ni         Ni      0.63719   0.73637   0.73939   0.97830
Ni         Ni      0.71916   0.33135   0.01148   0.95881
Ni         Ni      0.11447   0.26402   0.25668   0.97925
Ni         Ni      0.70371  -0.00066   0.33476   0.97025
Ni         Ni      0.39261   0.80030   0.18554   0.96433
Ni         Ni      0.04208   0.00010   0.66266   0.97047
Ni         Ni      0.38032   0.20219   0.81089   0.96678
H          H       0.34695   0.54517  -0.00096   0.09913
H          H       0.56453   0.56738   0.89648   0.12040
H          H       0.38833   0.80067   0.70521   0.12261
H          H       0.61080   0.71234   0.28701   0.10147
H          H       0.85502   0.68131   0.20514   0.09905
H          H       0.85826   0.69325   0.90825   0.12920
H          H       0.89423   0.45564  -0.00188   0.10253
H          H       0.03085   0.43332   0.10021   0.11914
H          H       0.89411   0.19960   0.29166   0.12247
H          H       0.61542   0.28842   0.70878   0.10160
H          H       0.74702   0.31860   0.79058   0.09813
H          H       0.46298   0.30685   0.08748   0.13067
H          H       0.88966   0.99517   0.44432   0.10025
H          H       0.13758   0.94804   0.37282   0.11155
H          H       0.19922   0.81695   0.09647   0.12511
H          H       0.22159   0.32283   0.40415   0.11885
H          H       0.43953   0.21311   0.43135   0.11464
H          H       0.56750   0.95353   0.22146   0.12779
H          H       0.33376   0.00152   0.55516   0.10169
H          H       0.46176   0.05111   0.62602   0.11078
H          H       0.11273   0.18775   0.90001   0.12588
H          H       0.95052   0.67744   0.59363   0.12002
H          H       0.08766   0.78561   0.56840   0.11944
H          H       0.74483   0.04797   0.77466   0.12623
C          C       0.35786   0.60095   0.93271   0.06525
C          C       0.47699   0.61372   0.87649   0.07167
C          C       0.37925   0.74351   0.77062   0.05314
C          C       0.26061   0.72965   0.82635   0.05860
C          C       0.13804   0.79087   0.80011   0.56297
C          C       0.66650   0.70800   0.20267   0.07407
C          C       0.80133   0.69047   0.15730   0.06667
C          C       0.80317   0.69804   0.99277   0.05942
C          C       0.66810   0.71575   0.03855   0.07000
C          C       0.59014   0.72860   0.97545   0.57050
C          C       0.89376   0.39988   0.06446   0.06609
C          C       0.96933   0.38680   0.12040   0.07274
C          C       0.89397   0.25693   0.22635   0.05701
C          C       0.81716   0.27118   0.17095   0.05509
C          C       0.72883   0.21004   0.19724   0.56307
C          C       0.58186   0.29271   0.79313   0.07268
C          C       0.65399   0.30983   0.83842   0.06864
C          C       0.49756   0.30245   0.00299   0.05994
C          C       0.42551   0.28567   0.95729   0.06991
C          C       0.29603   0.27406   0.02034   0.57177
C          C       0.95896   0.95590   0.36653   0.06765
C          C       0.09659   0.92873   0.32696   0.06712
C          C       0.13050   0.85787   0.17385   0.06839
C          C       0.99158   0.88931   0.21217   0.07238
C          C       0.92844   0.87130   0.14939   0.56912
C          C       0.29875   0.24000   0.36415   0.07347
C          C       0.41911   0.17932   0.37887   0.05638
C          C       0.49019   0.03506   0.26322   0.07469
C          C       0.36839   0.09436   0.25034   0.06351
C          C       0.32837   0.04417   0.18931   0.56039
C          C       0.28515   0.04261   0.63227   0.06364
C          C       0.35520   0.07122   0.67148   0.07083
C          C       0.16326   0.14517   0.82331   0.06559
C          C       0.09494   0.11201   0.78557   0.07497
C          C       0.95092   0.12949   0.84850   0.56730
C          C       0.90491   0.76055   0.63324   0.07598
C          C       0.98023   0.82061   0.61957   0.05832
C          C       0.79068   0.96616   0.73327   0.07228
C          C       0.71466   0.90720   0.74548   0.06311
C          C       0.56327   0.95736   0.80598   0.55929
N          N       0.24989   0.66085   0.90864  -0.18008
N          N       0.48581   0.68716   0.79730  -0.17642
N          N       0.59943   0.72340   0.14305  -0.19177
N          N       0.86903   0.68681   0.05255  -0.18292
N          N       0.82081   0.34010   0.08873  -0.17876
N          N       0.97179   0.31303   0.19938  -0.17695
N          N       0.46958   0.27801   0.85279  -0.19098
N          N       0.61265   0.31346   0.94318  -0.18629
N          N       0.90636   0.93666   0.30897  -0.18921
N          N       0.18310   0.87756   0.23126  -0.15245
N          N       0.27429   0.19716   0.29966  -0.19104
N          N       0.51531   0.07780   0.32765  -0.17698
N          N       0.15515   0.06284   0.68942  -0.18683
N          N       0.29339   0.12495   0.76616  -0.15761
N          N       0.77250   0.80422   0.69627  -0.19380
N          N       0.92360   0.92271   0.67002  -0.17998
O          O       0.03370   0.77514   0.85865  -0.51480
O          O       0.15535   0.85084   0.71921  -0.58764
O          O       0.46317   0.76218   0.02305  -0.50270
O          O       0.66445   0.70065   0.87861  -0.58422
O          O       0.11575   0.56819   0.09697  -0.84284
O          O       0.77908   0.56399   0.70937  -0.98996
O          O       0.02452   0.64202   0.30427  -0.89416
O          O       0.30882   0.47867   0.20077  -0.99475
O          O       0.12992   0.52524   0.90246  -0.84142
O          O       0.63036   0.76195   0.59685  -0.88599
O          O       0.24892   0.55990   0.68285  -0.95452
O          O       0.66651   0.22714   0.13934  -0.51956
O          O       0.72531   0.14895   0.27744  -0.58788
O          O       0.24988   0.24112   0.97264  -0.50016
O          O       0.24474   0.30227   0.11721  -0.58824
O          O       0.78922   0.43075   0.89801  -0.84858
O          O       0.05279   0.43602   0.28822  -0.99016
O          O       0.97314   0.35774   0.68918  -0.89399
O          O       0.99597   0.52143   0.78745  -0.99558
O          O       0.56215   0.47781   0.09164  -0.83759
O          O       0.99350   0.23616   0.39921  -0.88459
O          O       0.48457   0.44693   0.31282  -0.91331
O          O       0.79914   0.91323   0.18920  -0.51774
O          O       0.01047   0.81618   0.06293  -0.56062
O          O       0.20624   0.09917   0.19737  -0.51061
O          O       0.41665   0.94976   0.13908  -0.53792
O          O       0.64089   0.06335   0.47983  -0.82727
O          O       0.37327   0.83537   0.32722  -0.86348
O          O       0.48003   0.30179   0.50635  -0.87982
O          O       0.75252   0.20536   0.50399  -1.01946
O          O       0.66549   0.86537   0.40508  -0.85344
O          O       0.36633   0.65756   0.22674  -0.84434
O          O       0.75928   0.62745   0.40972  -0.94425
O          O       0.90371   0.08700   0.80900  -0.51660
O          O       0.89137   0.18457   0.93511  -0.55925
O          O       0.50439   0.90194   0.79766  -0.50949
O          O       0.50678   0.05192   0.85621  -0.53929
O          O       0.18770   0.93519   0.51832  -0.83249
O          O       0.53685   0.16603   0.66879  -0.85152
O          O       0.28486   0.69843   0.48739  -0.91155
O          O       0.46332   0.78266   0.49582  -1.02699
O          O       0.94397   0.13570   0.59273  -0.84942
O          O       0.25890   0.34569   0.76537  -0.85380
O          O       0.79845   0.37239   0.58528  -0.94772
O          O       0.96673   0.50254   0.49827  -0.93938
O          O       0.54059   0.50289   0.49606  -0.78314

