data_crystal

_audit_creation_method 'AiiDA-DDEC plugin'

_cell_length_a         9.29100
_cell_length_b         8.20308
_cell_length_c        27.78113

_cell_angle_alpha     89.91823
_cell_angle_beta     90.12363
_cell_angle_gamma     98.91132

_symmetry_space_group_name_Hall 'P 1'
_symmetry_space_group_name_H-M  'P 1'

loop_
_symmetry_equiv_pos_as_xyz
 'x,y,z'

loop_
_atom_site_label
_atom_site_type_symbol
_atom_site_fract_x
_atom_site_fract_y
_atom_site_fract_z
_atom_site_charge
Eu         Eu      0.01927   0.76852   0.00784   1.56161
Eu         Eu      0.49134   0.71932   0.50680   1.57029
Eu         Eu      0.97879   0.23341   0.99201   1.55874
Eu         Eu      0.51796   0.25922   0.49387   1.56687
H          H       0.16009   0.69700   0.14963   0.11468
H          H       0.18652   0.18373   0.12334   0.11058
H          H       0.24319   0.14107   0.20944   0.10386
H          H       0.08083   0.84094   0.22775   0.12209
H          H       0.12543   0.85757   0.28995   0.13035
H          H       0.01034   0.68042   0.26823   0.11922
H          H       0.20712   0.74350   0.85335   0.12540
H          H       0.16894   0.24760   0.88677   0.10625
H          H       0.21164   0.32868   0.80127   0.10992
H          H       0.09074   0.59483   0.77135   0.12436
H          H       0.13600   0.60183   0.70896   0.12850
H          H       0.02358   0.73817   0.73277   0.13006
H          H       0.32833   0.78554   0.64924   0.11903
H          H       0.31224   0.29759   0.62059   0.11305
H          H       0.26165   0.34655   0.70716   0.10780
H          H       0.41169   0.64687   0.72801   0.12403
H          H       0.36821   0.63170   0.79027   0.13063
H          H       0.48479   0.80694   0.76815   0.12311
H          H       0.29173   0.75256   0.35258   0.12254
H          H       0.34706   0.25107   0.38738   0.10085
H          H       0.30140   0.16562   0.30296   0.10654
H          H       0.40267   0.89910   0.26967   0.12247
H          H       0.35417   0.88813   0.20741   0.12666
H          H       0.46965   0.75506   0.23146   0.12620
H          H       0.84394   0.30752   0.85446   0.11302
H          H       0.80300   0.81997   0.87644   0.11163
H          H       0.74485   0.85232   0.78996   0.10325
H          H       0.91981   0.15352   0.77776   0.12276
H          H       0.87554   0.13123   0.71568   0.13083
H          H       0.99021   0.31056   0.73620   0.11950
H          H       0.78416   0.25301   0.14734   0.12529
H          H       0.84300   0.75620   0.11205   0.10373
H          H       0.80139   0.66931   0.19703   0.11104
H          H       0.89945   0.40017   0.22993   0.12412
H          H       0.85544   0.38822   0.29244   0.12848
H          H       0.97101   0.25738   0.26752   0.12982
H          H       0.66901   0.19519   0.35208   0.11759
H          H       0.69623   0.68343   0.37711   0.11468
H          H       0.74617   0.64258   0.29003   0.10696
H          H       0.57983   0.33649   0.27411   0.12505
H          H       0.62091   0.35583   0.21176   0.13149
H          H       0.50864   0.17683   0.23358   0.12263
H          H       0.71470   0.23162   0.65131   0.12360
H          H       0.64050   0.72471   0.61382   0.09885
H          H       0.68392   0.81740   0.69763   0.10654
H          H       0.59813   0.09056   0.73557   0.12224
H          H       0.64598   0.10704   0.79788   0.12735
H          H       0.53043   0.23756   0.77251   0.12562
C          C       0.13494   0.46237   0.08035   0.60159
C          C       0.17082   0.44215   0.13098  -0.05245
C          C       0.18000   0.57826   0.16334  -0.16240
C          C       0.19545   0.28565   0.14868  -0.10122
C          C       0.22782   0.26250   0.19649  -0.13971
C          C       0.24019   0.39906   0.22856   0.02281
C          C       0.21583   0.55724   0.21071   0.02290
C          C       0.10630   0.77112   0.25959  -0.43140
C          C       0.16139   0.93913   0.92576   0.60138
C          C       0.18625   0.99087   0.87504  -0.05491
C          C       0.20826   0.86967   0.84109  -0.12825
C          C       0.18618   0.15521   0.86022  -0.10668
C          C       0.21025   0.20090   0.81220  -0.12535
C          C       0.23189   0.07977   0.77849   0.03002
C          C       0.22950   0.91418   0.79329   0.02070
C          C       0.11808   0.67722   0.74040  -0.42740
C          C       0.35695   0.01418   0.57849   0.63337
C          C       0.32233   0.03948   0.62997  -0.04974
C          C       0.31165   0.90596   0.66243  -0.14007
C          C       0.30273   0.19687   0.64641  -0.09253
C          C       0.27376   0.22360   0.69472  -0.12690
C          C       0.26085   0.08990   0.72676   0.02486
C          C       0.27916   0.93113   0.71025   0.02263
C          C       0.38766   0.71757   0.75975  -0.43077
C          C       0.34890   0.55923   0.42495   0.55257
C          C       0.32183   0.50721   0.37562  -0.04876
C          C       0.29316   0.62649   0.34075  -0.15899
C          C       0.32535   0.34135   0.36067  -0.11714
C          C       0.29984   0.29324   0.31343  -0.13178
C          C       0.27146   0.41233   0.27871   0.01426
C          C       0.27009   0.57982   0.29367   0.02425
C          C       0.37472   0.81499   0.23916  -0.42756
C          C       0.86175   0.55153   0.92177   0.59115
C          C       0.82580   0.56272   0.87099  -0.04612
C          C       0.82022   0.42342   0.83976  -0.16707
C          C       0.79641   0.71610   0.85188  -0.10057
C          C       0.76305   0.73334   0.80404  -0.13894
C          C       0.75363   0.59342   0.77315   0.02419
C          C       0.78267   0.43814   0.79233   0.02857
C          C       0.89432   0.22045   0.74536  -0.43145
C          C       0.83837   0.06370   0.07417   0.60232
C          C       0.81449   0.00941   0.12467  -0.05439
C          C       0.78753   0.12710   0.15909  -0.12952
C          C       0.82102   0.84569   0.13884  -0.10452
C          C       0.79779   0.79665   0.18661  -0.12498
C          C       0.77088   0.91419   0.22074   0.02726
C          C       0.76779   0.07960   0.20673   0.02235
C          C       0.87456   0.31560   0.26053  -0.42669
C          C       0.64863   0.96014   0.42138   0.63396
C          C       0.68145   0.94104   0.36955  -0.05283
C          C       0.68813   0.07679   0.33800  -0.13821
C          C       0.70345   0.78586   0.35194  -0.09214
C          C       0.73211   0.76375   0.30342  -0.12573
C          C       0.74211   0.89987   0.27235   0.02765
C          C       0.71994   0.05613   0.28986   0.01955
C          C       0.60439   0.26827   0.24194  -0.43128
C          C       0.65191   0.41732   0.57774   0.55614
C          C       0.67615   0.47257   0.62699  -0.04514
C          C       0.70877   0.35740   0.66252  -0.16064
C          C       0.66612   0.63797   0.64100  -0.11711
C          C       0.69005   0.69011   0.68789  -0.12998
C          C       0.72244   0.57512   0.72333   0.01152
C          C       0.72910   0.40738   0.70940   0.02768
C          C       0.62561   0.17725   0.76551  -0.42736
C          C       0.23996   0.68596   0.25078   0.17765
C          C       0.25498   0.80479   0.75089   0.17603
C          C       0.76030   0.30574   0.75319   0.17691
C          C       0.73990   0.18503   0.24980   0.17683
O          O       0.09344   0.59881   0.06655  -0.71727
O          O       0.14349   0.34417   0.05028  -0.67175
O          O       0.18788   0.79924   0.93959  -0.58801
O          O       0.10644   0.03534   0.95586  -0.74523
O          O       0.40018   0.87858   0.56668  -0.68925
O          O       0.34385   0.12820   0.54803  -0.65844
O          O       0.32521   0.70100   0.43968  -0.60233
O          O       0.40612   0.46345   0.45594  -0.77138
O          O       0.91224   0.42238   0.93773  -0.72963
O          O       0.84514   0.67164   0.95025  -0.66157
O          O       0.80657   0.20102   0.06026  -0.58559
O          O       0.89873   0.97155   0.04410  -0.75007
O          O       0.60569   0.09388   0.43522  -0.69751
O          O       0.66258   0.84221   0.45037  -0.65628
O          O       0.67389   0.27373   0.56432  -0.60651
O          O       0.60014   0.51385   0.54564  -0.77338

