data_crystal

_audit_creation_method 'AiiDA-DDEC plugin'

_cell_length_a        12.47289
_cell_length_b        12.50717
_cell_length_c        12.34720

_cell_angle_alpha     90.22879
_cell_angle_beta     89.41919
_cell_angle_gamma     90.54300

_symmetry_space_group_name_Hall 'P 1'
_symmetry_space_group_name_H-M  'P 1'

loop_
_symmetry_equiv_pos_as_xyz
 'x,y,z'

loop_
_atom_site_label
_atom_site_type_symbol
_atom_site_fract_x
_atom_site_fract_y
_atom_site_fract_z
_atom_site_charge
Na         Na      0.53251   0.29181   0.52320   0.86161
Na         Na      0.45832   0.69915   0.52320   0.86132
Na         Na      0.30083   0.45823   0.47685   0.87153
Na         Na      0.70830   0.54168   0.48138   0.86193
Na         Na      0.00459   0.49548   0.48139   0.89185
Na         Na      0.50921   0.00447   0.52320   0.90894
Eu         Eu      0.00088  -0.00091  -0.00041   1.60888
H          H       0.88571   0.27464   0.90153   0.13762
H          H       0.87730   0.36150   0.71661   0.13588
H          H       0.77015   0.05617   0.58984   0.15884
H          H       0.60395   0.99441   0.73119   0.13684
H          H       0.65471   0.66943   0.83518   0.15594
H          H       0.84671   0.72505   0.87782   0.14290
H          H       0.11056   0.72434   0.89096   0.13896
H          H       0.11923   0.63970   0.70361   0.13487
H          H       0.23383   0.94517   0.58292   0.15888
H          H       0.39708   0.00673   0.72622   0.13613
H          H       0.34199   0.33056   0.83565   0.15648
H          H       0.14947   0.27361   0.87627   0.14079
H          H       0.27613   0.10884   0.10134   0.13699
H          H       0.36104   0.11076   0.28767   0.13469
H          H       0.05905   0.22440   0.41568   0.15740
H          H      -0.00092   0.39258   0.27523   0.13574
H          H       0.67392   0.33980   0.16889   0.15549
H          H       0.72729   0.14821   0.12586   0.14081
H          H       0.72774   0.88008   0.10353   0.13647
H          H       0.64135   0.87357   0.29038   0.13505
H          H       0.94686   0.76977   0.41312   0.16022
H          H       0.01055   0.60431   0.27416   0.13840
H          H       0.33350   0.66043   0.15575   0.15492
H          H       0.27680   0.85042   0.11372   0.14209
C          C       0.86132   0.23275   0.82856  -0.01391
C          C       0.85602   0.27763   0.72702  -0.09564
C          C       0.82354   0.21431   0.63942  -0.03494
C          C       0.79644   0.10739   0.65621  -0.12745
C          C       0.80129   0.06467   0.76001   0.10155
C          C       0.75965   0.95665   0.78473   0.08365
C          C       0.65369   0.93117   0.76288  -0.13409
C          C       0.61407   0.82794   0.77976  -0.03510
C          C       0.68268   0.75106   0.82176  -0.10856
C          C       0.78793   0.77876   0.84444  -0.01897
C          C       0.13616   0.76672   0.81855  -0.01227
C          C       0.14171   0.72315   0.71605  -0.09432
C          C       0.17664   0.78720   0.62973  -0.03667
C          C       0.20513   0.89365   0.64828  -0.12578
C          C       0.19898   0.93522   0.75303   0.10136
C          C       0.23994   0.04307   0.78006   0.08722
C          C       0.34635   0.06925   0.75921  -0.13307
C          C       0.38502   0.17238   0.77879  -0.03796
C          C       0.31494   0.24884   0.82102  -0.10591
C          C       0.20937   0.22038   0.84252  -0.01382
C          C       0.23456   0.13322   0.17488  -0.01401
C          C       0.27853   0.13548   0.27684  -0.09838
C          C       0.21592   0.16861   0.36514  -0.02790
C          C       0.10988   0.19833   0.34852  -0.13226
C          C       0.06759   0.19534   0.24461   0.09778
C          C       0.95994   0.23657   0.22053   0.08317
C          C       0.93550   0.34224   0.24302  -0.13486
C          C       0.83289   0.38140   0.22540  -0.03649
C          C       0.75515   0.31232   0.18289  -0.10644
C          C       0.78164   0.20727   0.15995  -0.01667
C          C       0.76971   0.85708   0.17624  -0.01460
C          C       0.72517   0.85295   0.27863  -0.09592
C          C       0.78883   0.82215   0.36555  -0.03653
C          C       0.89562   0.79540   0.34736  -0.12845
C          C       0.93824   0.79948   0.24267   0.10160
C          C       0.04657   0.75980   0.21629   0.08443
C          C       0.07293   0.65485   0.23901  -0.12703
C          C       0.17601   0.61734   0.21845  -0.04436
C          C       0.25208   0.68678   0.17255  -0.10476
C          C       0.22374   0.79108   0.14996  -0.01783
S          S       0.81452   0.27410   0.50882   1.15829
S          S       0.47779   0.79702   0.74535   1.14368
S          S       0.18679   0.72733   0.49863   1.16017
S          S       0.52229   0.20488   0.74823   1.14657
S          S       0.27438   0.17634   0.49689   1.18298
S          S       0.80461   0.51855   0.25690   1.14722
S          S       0.72800   0.81424   0.49670   1.15887
S          S       0.20802   0.48189   0.25107   1.13700
N          N       0.83397   0.12807   0.84452   0.32443
N          N       0.82658   0.87965   0.82464   0.32043
N          N       0.16497   0.87077   0.83637   0.32359
N          N       0.17197   0.11936   0.82154   0.32132
N          N       0.13100   0.16316   0.15932   0.32100
N          N       0.88208   0.16930   0.17966   0.31988
N          N       0.87435   0.83051   0.15885   0.32286
N          N       0.12308   0.82785   0.17321   0.32208
Cl         Cl      0.50376   0.49737   0.49487  -0.71320
O          O       0.83782   0.08885   0.94285  -0.53373
O          O       0.92780   0.90197   0.84121  -0.51397
O          O       0.92127   0.32390   0.49072  -0.63251
O          O       0.79166   0.18527   0.43133  -0.47052
O          O       0.72697   0.35252   0.51929  -0.68496
O          O       0.45902   0.86142   0.64472  -0.71638
O          O       0.47580   0.68154   0.72210  -0.60763
O          O       0.41290   0.83314   0.83809  -0.55783
O          O       0.14871   0.46241   0.60140  -0.28506
O          O       0.16146   0.90818   0.93580  -0.53211
O          O       0.07054   0.09652   0.83884  -0.51686
O          O       0.08014   0.67866   0.48017  -0.61703
O          O       0.21334   0.81515   0.42154  -0.47905
O          O       0.27309   0.64741   0.50917  -0.69525
O          O       0.54693   0.13861   0.64897  -0.72411
O          O       0.52379   0.31960   0.72305  -0.60298
O          O       0.58345   0.17116   0.84282  -0.55511
O          O       0.85292   0.61569   0.58900  -0.20212
O          O       0.09245   0.16127   0.06060  -0.53465
O          O       0.90316   0.06841   0.16154  -0.51734
O          O       0.33874   0.07751   0.50451  -0.68379
O          O       0.18516   0.18479   0.57407  -0.56209
O          O       0.34462   0.27351   0.49040  -0.73342
O          O       0.87011   0.54115   0.35640  -0.72170
O          O       0.68921   0.52264   0.28139  -0.60680
O          O       0.84243   0.57892   0.16204  -0.55925
O          O       0.39384   0.84697   0.40788  -0.18698
O          O       0.91275   0.83377   0.05958  -0.53137
O          O       0.10079   0.92840   0.15670  -0.51714
O          O       0.67983   0.92046   0.51419  -0.63605
O          O       0.81568   0.79165   0.57413  -0.47237
O          O       0.64781   0.72679   0.48675  -0.69537
O          O       0.14307   0.45803   0.35171  -0.68424
O          O       0.32364   0.48144   0.27291  -0.57959
O          O       0.17212   0.41710   0.15848  -0.52685
O          O       0.61188   0.14832   0.42087  -0.22521

