data_crystal

_audit_creation_method 'AiiDA-DDEC plugin'

_cell_length_a        14.30594
_cell_length_b        14.82991
_cell_length_c        14.83503

_cell_angle_alpha     49.53341
_cell_angle_beta     86.59767
_cell_angle_gamma     86.12239

_symmetry_space_group_name_Hall 'P 1'
_symmetry_space_group_name_H-M  'P 1'

loop_
_symmetry_equiv_pos_as_xyz
 'x,y,z'

loop_
_atom_site_label
_atom_site_type_symbol
_atom_site_fract_x
_atom_site_fract_y
_atom_site_fract_z
_atom_site_charge
Mn         Mn      0.12753   0.69762   0.56797   1.08605
Mn         Mn      0.89082   0.57451   0.71212   1.11227
Mn         Mn      0.37082   0.44591   0.29500   1.10057
Mn         Mn      0.61031   0.29689   0.41455   1.10696
Mn         Mn      0.86709   0.28978   0.45450   1.11163
Mn         Mn      0.10620   0.41363   0.29687   1.11881
Mn         Mn      0.62779   0.56309   0.69770   1.09520
Mn         Mn      0.38856   0.71532   0.56810   1.11301
H          H       0.99768   0.24732   0.80698   0.14912
H          H       0.15512   0.49569   0.48476   0.13248
H          H       0.09255   0.99495   0.52261   0.13110
H          H       0.35410   0.90564   0.69989   0.14362
H          H       0.50925   0.19397   0.75136   0.14885
H          H       0.34560   0.51604   0.50450   0.13046
H          H       0.40279   0.48709   0.99689   0.13020
H          H       0.15448   0.28651   0.10150   0.14405
H          H       0.00468   0.74984   0.19492   0.14960
H          H       0.84441   0.50425   0.51512   0.13198
H          H       0.89908   0.98425   0.50463   0.13602
H          H       0.65029   0.09331   0.30198   0.15047
H          H       0.50079   0.81637   0.24394   0.15207
H          H       0.65562   0.48762   0.49086   0.13137
H          H       0.58964   0.52539   0.99526   0.13479
H          H       0.84749   0.70725   0.89908   0.14808
C          C       0.08281   0.17550   0.74158   0.04212
C          C       0.04662   0.26713   0.73798  -0.08248
C          C       0.07348   0.38290   0.64562  -0.03091
C          C       0.13553   0.40513   0.55764  -0.07966
C          C       0.17290   0.31178   0.56365  -0.09577
C          C       0.14791   0.19364   0.65738   0.04566
C          C       0.17685   0.10090   0.64839   0.02886
C          C       0.11843   0.08992   0.58313  -0.07311
C          C       0.13958   0.00576   0.56986  -0.10355
C          C       0.22395   0.93596   0.61354  -0.01592
C          C       0.28639   0.95379   0.66954  -0.12597
C          C       0.26196   0.03407   0.68730   0.05367
C          C       0.03571   0.48321   0.63856   0.60670
C          C       0.23948   0.34027   0.46818   0.54662
C          C       0.03238   0.16891   0.52558   0.59420
C          C       0.24164   0.84687   0.59772   0.62078
C          C       0.42229   0.25868   0.82374   0.03644
C          C       0.45927   0.26268   0.73195  -0.08524
C          C       0.43031   0.35493   0.61591  -0.02601
C          C       0.36620   0.44188   0.59461  -0.08058
C          C       0.32938   0.43663   0.68746  -0.09741
C          C       0.35514   0.34228   0.80545   0.04641
C          C       0.32556   0.35223   0.89725   0.02818
C          C       0.38087   0.42172   0.90583  -0.06724
C          C       0.35770   0.43640   0.98881  -0.09168
C          C       0.27780   0.38613   0.06197  -0.01994
C          C       0.22052   0.32268   0.04916  -0.11841
C          C       0.24494   0.30650   0.96791   0.05345
C          C       0.46670   0.36392   0.51391   0.60788
C          C       0.26100   0.53072   0.66031   0.55576
C          C       0.46161   0.48674   0.82144   0.60233
C          C       0.25765   0.39936   0.15331   0.62058
C          C       0.92104   0.82287   0.26084   0.04056
C          C       0.95556   0.73082   0.26347  -0.07910
C          C       0.92687   0.61556   0.35477  -0.03056
C          C       0.86470   0.59435   0.44225  -0.07802
C          C       0.82943   0.68784   0.43777  -0.09667
C          C       0.85601   0.80546   0.34507   0.04328
C          C       0.82790   0.89734   0.35518   0.03326
C          C       0.88158   0.90312   0.42787  -0.07488
C          C       0.85703   0.98233   0.44755  -0.09501
C          C       0.77589   0.05574   0.39678  -0.03025
C          C       0.71663   0.04401   0.33298  -0.11890
C          C       0.74368   0.96592   0.31324   0.04995
C          C       0.96295   0.51351   0.36370   0.60997
C          C       0.76126   0.66022   0.53138   0.54873
C          C       0.96597   0.82255   0.48821   0.59735
C          C       0.74971   0.14318   0.41497   0.60959
C          C       0.58050   0.74689   0.17082   0.05032
C          C       0.54610   0.74545   0.26126  -0.09744
C          C       0.57580   0.65199   0.37737  -0.03091
C          C       0.63692   0.56254   0.40004  -0.09420
C          C       0.67551   0.56926   0.30688  -0.08829
C          C       0.64695   0.66228   0.19006   0.03262
C          C       0.67410   0.65513   0.09628   0.01357
C          C       0.61538   0.59041   0.08508  -0.05659
C          C       0.63662   0.57408   0.00372  -0.09808
C          C       0.71968   0.61686   0.93498  -0.01645
C          C       0.78210   0.67535   0.94904  -0.12472
C          C       0.75673   0.69688   0.02711   0.05006
C          C       0.53747   0.64317   0.47808   0.60781
C          C       0.74134   0.47309   0.33399   0.55316
C          C       0.53291   0.52828   0.16773   0.59546
C          C       0.73921   0.59857   0.84777   0.62216
N          N       0.04670   0.05637   0.83599   0.52839
N          N       0.33063   0.05422   0.74242   0.52474
N          N       0.45753   0.16196   0.94408   0.53090
N          N       0.18009   0.24200   0.95547   0.51106
N          N       0.95993   0.94048   0.16783   0.52851
N          N       0.67745   0.94769   0.25396   0.52532
N          N       0.54601   0.83784   0.04902   0.51712
N          N       0.82472   0.75485   0.04434   0.51567
O          O       0.09515   0.96952   0.86231  -0.31774
O          O       0.96945   0.05177   0.88098  -0.30681
O          O       0.97706   0.45827   0.72016  -0.55935
O          O       0.06282   0.58677   0.55225  -0.59313
O          O       0.22191   0.43914   0.35959  -0.61257
O          O       0.31125   0.27692   0.48688  -0.50538
O          O       0.03502   0.25679   0.41204  -0.61693
O          O       0.95987   0.15025   0.58740  -0.48908
O          O       0.17445   0.78070   0.62478  -0.57316
O          O       0.32140   0.84727   0.55445  -0.56534
O          O       0.29966   0.09489   0.79020  -0.30620
O          O       0.41434   0.03219   0.73433  -0.31654
O          O       0.40225   0.12045   0.02911  -0.32446
O          O       0.54048   0.12942   0.95019  -0.30925
O          O       0.52720   0.28449   0.53540  -0.55558
O          O       0.43593   0.45092   0.41142  -0.59439
O          O       0.27534   0.63854   0.55890  -0.61385
O          O       0.19195   0.51199   0.72529  -0.49749
O          O       0.44896   0.59772   0.73238  -0.61116
O          O       0.53985   0.43178   0.84198  -0.50742
O          O       0.32886   0.40912   0.19334  -0.57079
O          O       0.17151   0.39925   0.18329  -0.57184
O          O       0.20690   0.21704   0.89055  -0.30412
O          O       0.10251   0.21768   0.00869  -0.30516
O          O       0.91518   0.02791   0.14594  -0.32089
O          O       0.03367   0.94342   0.11853  -0.30025
O          O       0.02216   0.53453   0.28454  -0.55275
O          O       0.93394   0.41097   0.45097  -0.60213
O          O       0.77724   0.55898   0.63948  -0.61141
O          O       0.69076   0.72538   0.51110  -0.49878
O          O       0.96025   0.73129   0.60017  -0.60893
O          O       0.04309   0.84784   0.43169  -0.49798
O          O       0.80844   0.15933   0.46347  -0.59095
O          O       0.67204   0.20126   0.37398  -0.55946
O          O       0.71074   0.91404   0.20126  -0.29592
O          O       0.59300   0.96410   0.26502  -0.31952
O          O       0.59959   0.91715   0.97562  -0.28921
O          O       0.46602   0.82477   0.02955  -0.30676
O          O       0.47560   0.72203   0.45529  -0.55805
O          O       0.56494   0.55537   0.58220  -0.59424
O          O       0.72438   0.36544   0.43411  -0.62224
O          O       0.80931   0.48862   0.26906  -0.50238
O          O       0.54512   0.41683   0.25631  -0.60480
O          O       0.45438   0.58173   0.14577  -0.49466
O          O       0.66878   0.60732   0.79415  -0.57597
O          O       0.82446   0.57857   0.83342  -0.56803
O          O       0.79655   0.79013   0.09868  -0.30135
O          O       0.90623   0.76236   0.00563  -0.30962

