data_crystal

_audit_creation_method 'AiiDA-DDEC plugin'

_cell_length_a         9.92135
_cell_length_b        17.49802
_cell_length_c        21.72565

_cell_angle_alpha     89.52900
_cell_angle_beta     90.54705
_cell_angle_gamma     90.93718

_symmetry_space_group_name_Hall 'P 1'
_symmetry_space_group_name_H-M  'P 1'

loop_
_symmetry_equiv_pos_as_xyz
 'x,y,z'

loop_
_atom_site_label
_atom_site_type_symbol
_atom_site_fract_x
_atom_site_fract_y
_atom_site_fract_z
_atom_site_charge
Fe         Fe      0.73033   0.84985   0.42492   0.95257
Fe         Fe      0.53402   0.74787   0.49943   1.03274
Fe         Fe      0.26851   0.34940   0.07117   0.93156
Fe         Fe      0.28079   0.34711   0.92079   0.95904
Fe         Fe      0.46350   0.24713  -0.00007   1.03823
Fe         Fe      0.72185   0.85001   0.57532   0.95986
H          H       0.40051   0.95164   0.19181   0.11739
H          H       0.92263   0.58522   0.76704   0.11691
H          H       0.09094   0.08545   0.72720   0.11597
H          H       0.85699   0.69178   0.30696   0.12762
H          H       0.87913   0.68665   0.68894   0.12962
H          H       0.99614   0.46088   0.78313   0.12992
H          H       0.09127   0.08862   0.27142   0.12124
H          H       0.43712   0.05124   0.11072   0.12312
H          H       0.44233   0.93571   0.69348   0.13516
H          H       0.16769   0.82538   0.56668   0.13856
H          H       0.54112   0.55671   0.61878   0.12320
H          H       0.42125   0.95612   0.80180   0.11719
H          H       0.54732   0.55213   0.39022   0.12285
H          H       0.56494   0.43562   0.80479   0.13496
H          H       0.80843   0.31409   0.08121   0.13872
H          H       0.58301   0.45498   0.69705   0.11761
H          H       0.46015   0.05600   0.88120   0.12277
H          H       0.13113   0.18486   0.80649   0.13056
H          H       0.01228   0.96353   0.71178   0.12909
H          H       0.83499   0.32266   0.93065   0.14102
H          H       0.18186   0.81221   0.42465   0.13836
H          H       0.97816   0.46179   0.21961   0.12672
H          H       0.44007   0.94303   0.30387   0.13509
H          H       0.58157   0.45191   0.31121   0.11706
H          H       0.89576   0.59060   0.22944   0.11831
H          H       0.00726   0.95807   0.28566   0.12862
H          H       0.54548   0.44071   0.19772   0.13492
H          H       0.13196   0.18904   0.19150   0.12833
C          C       0.19395   0.85168   0.38613  -0.09790
C          C       0.09881   0.94002   0.68855  -0.13648
C          C       0.22589   0.95651   0.28745   0.06220
C          C       0.77757   0.45589   0.78746   0.06317
C          C       0.09677   0.93483   0.30773  -0.12831
C          C       0.62277   0.56005   0.35468  -0.08874
C          C       0.74069   0.51453   0.26476   0.07658
C          C       0.70733   0.62801   0.64919  -0.04785
C          C       0.07645   0.89317   0.63742  -0.02876
C          C       0.68785   0.37352   0.86920  -0.03770
C          C       0.24390   0.01350   0.23739   0.07459
C          C       0.54935   0.34237   0.10172   0.58411
C          C       0.81877   0.35842   0.89020  -0.09687
C          C       0.67785   0.69131   0.60545   0.58030
C          C       0.35765   0.00617   0.80258  -0.13838
C          C       0.28718   0.12622   0.14649  -0.04557
C          C       0.75918   0.45704   0.21615   0.06043
C          C       0.25312   0.01355   0.75876   0.07387
C          C       0.16623   0.08007   0.23601  -0.14022
C          C       0.81619   0.63526   0.69063  -0.08773
C          C       0.79874   0.63865   0.30796  -0.08696
C          C       0.64212   0.50431   0.31036  -0.13743
C          C       0.74102   0.04034   0.46095  -0.09567
C          C       0.18862   0.13640   0.19154  -0.08317
C          C       0.31666   0.87490   0.62869  -0.03703
C          C       0.88905   0.43722   0.19727  -0.12679
C          C       0.26175   0.54122   0.02999  -0.08638
C          C       0.66773   0.42224   0.81842  -0.12996
C          C       0.29789   0.12655   0.84876  -0.04784
C          C       0.23051   0.95722   0.70912   0.06269
C          C       0.44425   0.84335   0.39897   0.58188
C          C       0.90863   0.43760   0.80710  -0.13669
C          C       0.75563   0.51293   0.73783   0.07403
C          C       0.92887   0.38996   0.85836  -0.03058
C          C       0.64795   0.50566   0.69551  -0.14002
C          C       0.34149   0.00351   0.19170  -0.13862
C          C       0.19271   0.13409   0.80553  -0.08847
C          C       0.67383   0.69003   0.39734   0.58206
C          C       0.33894   0.92316   0.67923  -0.13069
C          C       0.43297   0.84150   0.59598   0.57632
C          C       0.79457   0.35279   0.11936  -0.10164
C          C       0.64718   0.42431   0.18576  -0.13143
C          C       0.17048   0.07810   0.76144  -0.13936
C          C       0.06667   0.37422   0.88045   0.52873
C          C       0.27878   0.48538   0.98464   0.45975
C          C       0.84027   0.57816   0.73406  -0.14161
C          C       0.32330   0.87322   0.36610  -0.03444
C          C       0.82004   0.58194   0.26482  -0.13752
C          C       0.18520   0.86095   0.60683  -0.09969
C          C       0.36207   0.05886   0.14619  -0.08790
C          C       0.33877   0.92539   0.31728  -0.12724
C          C       0.31597   0.18822   0.10139   0.58079
C          C       0.93767   0.87873   0.61492   0.52807
C          C       0.04190   0.36980   0.12545   0.53256
C          C       0.90615   0.38595   0.14902  -0.02698
C          C       0.37950   0.06178   0.84733  -0.08920
C          C       0.56977   0.34076   0.90269   0.57545
C          C       0.62434   0.56228   0.65143  -0.08827
C          C       0.69971   0.62809   0.35314  -0.04906
C          C       0.94371   0.86554   0.37964   0.52648
C          C       0.32463   0.18907   0.89320   0.57907
C          C       0.08072   0.88313   0.35688  -0.03225
C          C       0.72392   0.98595   0.50835   0.46304
C          C       0.66530   0.37246   0.13776  -0.03820
O          O       0.33399   0.31479   0.99688  -0.68311
O          O       0.83375   0.88534   0.64888  -0.43498
O          O       0.91510   0.85870   0.55861  -0.44776
O          O       0.75468   0.75063   0.60864  -0.47139
O          O       0.75477   0.94972   0.45453  -0.21927
O          O       0.92497   0.82900   0.43086  -0.43199
O          O       0.38046   0.17181   0.05253  -0.48027
O          O       0.71402   0.75724   0.38086  -0.47531
O          O       0.40537   0.80183   0.54801  -0.49109
O          O       0.05069   0.33326   0.07416  -0.46504
O          O       0.66515   0.81654   0.50037  -0.68775
O          O       0.44095   0.38122   0.10356  -0.46189
O          O       0.14807   0.39373   0.15332  -0.46499
O          O       0.42763   0.78177   0.43032  -0.48604
O          O       0.24793   0.24704   0.88904  -0.47080
O          O       0.55138   0.85563   0.61701  -0.47688
O          O       0.57668   0.68347   0.56875  -0.48967
O          O       0.17109   0.38062   0.84640  -0.43334
O          O       0.70146   0.95988   0.56035  -0.36892
O          O       0.83701   0.88872   0.35188  -0.43821
O          O       0.61234   0.67308   0.44729  -0.47865
O          O       0.42329   0.18221   0.93131  -0.48812
O          O       0.24578   0.45097   0.03984  -0.21456
O          O       0.55489   0.88162   0.39414  -0.47517
O          O       0.08802   0.35372   0.93693  -0.44566
O          O       0.45250   0.35376   0.88055  -0.47588
O          O       0.30273   0.45766   0.93386  -0.36686
O          O       0.59454   0.30272   0.95208  -0.48810
O          O       0.56592   0.28183   0.07037  -0.48337
O          O       0.27514   0.25488   0.11622  -0.47037

