data_crystal

_audit_creation_method 'AiiDA-DDEC plugin'

_cell_length_a        11.02720
_cell_length_b        11.75883
_cell_length_c        15.94389

_cell_angle_alpha     91.22640
_cell_angle_beta     89.98536
_cell_angle_gamma     89.92907

_symmetry_space_group_name_Hall 'P 1'
_symmetry_space_group_name_H-M  'P 1'

loop_
_symmetry_equiv_pos_as_xyz
 'x,y,z'

loop_
_atom_site_label
_atom_site_type_symbol
_atom_site_fract_x
_atom_site_fract_y
_atom_site_fract_z
_atom_site_charge
Mn         Mn      0.96260   0.74031   0.86545   1.04384
Mn         Mn      0.17693   0.76073   0.71617   1.04720
Mn         Mn      0.46216   0.75970   0.63543   1.04375
Mn         Mn      0.67706   0.73989   0.78507   1.04707
Mn         Mn      0.03723   0.26045   0.13494   1.04324
Mn         Mn      0.82290   0.23984   0.28416   1.04769
Mn         Mn      0.53775   0.24032   0.36466   1.04375
Mn         Mn      0.32295   0.26056   0.21509   1.04683
Mn         Mn     -0.00031   0.00064  -0.00006   1.04896
Mn         Mn      0.50003   0.49999   0.50019   1.05089
Mn         Mn      0.00008   0.50027   0.00009   1.06538
Mn         Mn      0.49989  -0.00006   0.49987   1.06868
H          H       0.10048   0.02392   0.75064   0.03884
H          H       0.65048   0.92626   0.92565   0.03731
H          H       0.87755   0.64150   0.54183   0.16461
H          H       0.74792   0.69303   0.59945   0.15903
H          H       0.79934   0.55276   0.61257   0.17200
H          H       0.12147   0.81100   0.09287   0.03556
H          H       0.73776   0.49388   0.95890   0.04030
H          H       0.27116   0.48694   0.73925   0.16375
H          H       0.32943   0.44173   0.83743   0.16695
H          H       0.35723   0.58324   0.80101   0.16133
H          H       0.60457   0.47648   0.74929   0.03822
H          H       0.15063   0.57343   0.57449   0.03770
H          H       0.37640   0.86238   0.95851   0.16422
H          H       0.24741   0.80925   0.90121   0.15939
H          H       0.29850   0.94910   0.88618   0.17282
H          H       0.62154   0.68961   0.40763   0.03681
H          H       0.23629   0.00652   0.54249   0.03993
H          H       0.77161   0.01307   0.76025   0.16374
H          H       0.82802   0.05848   0.66153   0.16718
H          H       0.85629   0.91676   0.69745   0.16147
H          H       0.89952   0.97630   0.24936   0.03845
H          H       0.34907   0.07566   0.07381   0.03814
H          H       0.12210   0.35910   0.45847   0.16384
H          H       0.25177   0.30768   0.40089   0.15908
H          H       0.20090   0.44816   0.38821   0.17189
H          H       0.87814   0.19007   0.90734   0.03636
H          H       0.26237   0.50655   0.04120   0.03966
H          H       0.72822   0.51324   0.26065   0.16356
H          H       0.67021   0.55853   0.16240   0.16635
H          H       0.64249   0.41692   0.19866   0.16096
H          H       0.39539   0.52380   0.25102   0.03820
H          H       0.84936   0.42680   0.42551   0.03806
H          H       0.62364   0.13709   0.04170   0.16426
H          H       0.75256   0.19045   0.09891   0.15982
H          H       0.70143   0.05068   0.11427   0.17218
H          H       0.37850   0.31019   0.59252   0.03681
H          H       0.76358   0.99342   0.45749   0.03999
H          H       0.22737   0.98804   0.23982   0.16391
H          H       0.17129   0.94220   0.33852   0.16658
H          H       0.14329   0.08419   0.30312   0.16140
C          C       0.06572   0.97944   0.80579   0.50624
C          C       0.74983   0.91667   0.92589   0.49970
C          C       0.91182   0.67901   0.67205   0.71613
C          C       0.82973   0.64026   0.60191  -0.55266
C          C       0.08115   0.75778   0.04263   0.51776
C          C       0.76190   0.56365   0.91726   0.51354
C          C       0.17554   0.55359   0.84648   0.71347
C          C       0.29109   0.51391   0.80423  -0.54491
C          C       0.56847   0.52135   0.69468   0.50881
C          C       0.24991   0.58342   0.57467   0.50229
C          C       0.41176   0.82137   0.82895   0.71668
C          C       0.32907   0.86198   0.89823  -0.55348
C          C       0.58186   0.74284   0.45818   0.51615
C          C       0.26059   0.93666   0.58407   0.51490
C          C       0.67385   0.94709   0.65382   0.71491
C          C       0.79019   0.98638   0.69501  -0.54500
C          C       0.93444   0.02168   0.19467   0.50677
C          C       0.24971   0.08508   0.07389   0.50127
C          C       0.08825   0.32258   0.32805   0.71642
C          C       0.17013   0.36070   0.39848  -0.55211
C          C       0.91811   0.24341   0.95764   0.51387
C          C       0.23830   0.43659   0.08269   0.51558
C          C       0.82428   0.44681   0.15357   0.71390
C          C       0.70853   0.48635   0.19561  -0.54389
C          C       0.43154   0.47885   0.30557   0.50846
C          C       0.75009   0.41662   0.42555   0.50319
C          C       0.58815   0.17857   0.17119   0.71571
C          C       0.67089   0.13775   0.10201  -0.55312
C          C       0.41811   0.25706   0.54189   0.51570
C          C       0.73933   0.06335   0.41596   0.51381
C          C       0.32587   0.05312   0.34619   0.71460
C          C       0.20920   0.01437   0.30519  -0.54476
O          O       0.03145   0.03718   0.86846  -0.51392
O          O       0.06436   0.86975   0.79923  -0.56142
O          O       0.81062   0.97932   0.97479  -0.50654
O          O       0.79250   0.84076   0.87412  -0.55637
O          O       0.86404   0.70404   0.74455  -0.61493
O          O       0.02443   0.68451   0.65794  -0.57073
O          O       0.02816   0.81231   0.98326  -0.55585
O          O       0.09071   0.65184   0.04704  -0.52188
O          O       0.87214   0.59992   0.92326  -0.55319
O          O       0.68180   0.60015   0.86869  -0.51447
O          O       0.13162   0.65176   0.82542  -0.62131
O          O       0.12688   0.49018   0.89938  -0.56724
O          O       0.53385   0.46418   0.63193  -0.51663
O          O       0.56597   0.63097   0.70194  -0.56230
O          O       0.31176   0.52023   0.52664  -0.50929
O          O       0.29146   0.66024   0.62596  -0.55623
O          O       0.36469   0.79553   0.75638  -0.61585
O          O       0.52412   0.81513   0.84375  -0.56895
O          O       0.52835   0.68841   0.51730  -0.55560
O          O       0.59265   0.84874   0.45443  -0.52185
O          O       0.37084   0.90037   0.57799  -0.55403
O          O       0.18039   0.90024   0.63267  -0.51619
O          O       0.62955   0.84976   0.67607  -0.62108
O          O       0.62499   0.01003   0.60059  -0.56849
O          O       0.96854   0.96506   0.13143  -0.51489
O          O       0.93625   0.13123   0.20231  -0.56017
O          O       0.18876   0.02366   0.02429  -0.50798
O          O       0.20706   0.15962   0.12677  -0.55715
O          O       0.13621   0.29929   0.25532  -0.61490
O          O       0.97571   0.31595   0.34216  -0.57175
O          O       0.97003   0.18903   0.01751  -0.55483
O          O       0.90923   0.34935   0.95282  -0.51900
O          O       0.12805   0.40033   0.07665  -0.55414
O          O       0.31847   0.39988   0.13111  -0.51480
O          O       0.86822   0.34875   0.17476  -0.62187
O          O       0.87313   0.51018   0.10072  -0.56746
O          O       0.46617   0.53596   0.36836  -0.51615
O          O       0.43411   0.36923   0.29818  -0.56220
O          O       0.68833   0.47952   0.47382  -0.50953
O          O       0.70849   0.33985   0.37422  -0.55696
O          O       0.63521   0.20463   0.24371  -0.61532
O          O       0.47579   0.18468   0.15635  -0.56895
O          O       0.47161   0.31162   0.48283  -0.55489
O          O       0.40731   0.15115   0.54551  -0.52208
O          O       0.62905   0.09960   0.42200  -0.55399
O          O       0.81954   0.09988   0.36744  -0.51554
O          O       0.37035   0.15040   0.32400  -0.62028
O          O       0.37478   0.98985   0.39919  -0.56875

