data_crystal

_audit_creation_method 'AiiDA-DDEC plugin'

_cell_length_a        10.59524
_cell_length_b        12.09288
_cell_length_c        16.71468

_cell_angle_alpha     90.07617
_cell_angle_beta     89.92321
_cell_angle_gamma     104.78114

_symmetry_space_group_name_Hall 'P 1'
_symmetry_space_group_name_H-M  'P 1'

loop_
_symmetry_equiv_pos_as_xyz
 'x,y,z'

loop_
_atom_site_label
_atom_site_type_symbol
_atom_site_fract_x
_atom_site_fract_y
_atom_site_fract_z
_atom_site_charge
Zn         Zn      0.71389   0.08970   0.53441   0.79186
Zn         Zn      0.90517   0.51405   0.63209   0.78672
Zn         Zn      0.29048   0.41371   0.03180   0.79106
Zn         Zn      0.09370   0.98588   0.13240   0.78618
Zn         Zn      0.28607   0.91052   0.46558   0.79061
Zn         Zn      0.09482   0.48528   0.36514   0.78654
Zn         Zn      0.71386   0.58910   0.96548   0.79073
Zn         Zn      0.90927   0.01447   0.86764   0.78686
Zn         Zn     -0.00018   0.00014   0.49994   0.70318
Zn         Zn      0.00067   0.50028  -0.00042   0.70564
H          H       0.19348   0.65704   0.54920   0.11835
H          H       0.83231   0.73900   0.57989   0.12298
H          H       0.04967   0.96136   0.69666   0.11578
H          H       0.71799   0.08450   0.74085   0.13125
H          H       0.43803   0.56228   0.63208   0.15098
H          H       0.14015   0.24652   0.59531   0.13413
H          H       0.80561   0.84313   0.04914   0.11795
H          H       0.16804   0.76285   0.07728   0.12277
H          H       0.95154   0.53799   0.19615   0.11467
H          H       0.29005   0.42376   0.23712   0.13051
H          H       0.55892   0.93889   0.13349   0.15155
H          H       0.85927   0.25325   0.09743   0.13440
H          H       0.80471   0.34191   0.44760   0.11873
H          H       0.16682   0.26093   0.41884   0.12259
H          H       0.94987   0.03771   0.30290   0.11550
H          H       0.28312   0.91648   0.25964   0.13063
H          H       0.55968   0.43822   0.36563   0.15112
H          H       0.85861   0.75295   0.40342   0.13402
H          H       0.19759   0.15860   0.95023   0.11765
H          H       0.83477   0.23792   0.92157   0.12232
H          H       0.05002   0.46124   0.80185   0.11496
H          H       0.71404   0.57899   0.76032   0.13021
H          H       0.44223   0.06324   0.86728   0.15046
H          H       0.14332   0.74722   0.90118   0.13513
C          C       0.11534   0.69964   0.54924   0.15127
C          C       0.93303   0.74460   0.56414   0.13686
C          C       0.96215   0.99061   0.68879   0.14667
C          C       0.79364   0.05435   0.71082   0.14812
C          C       0.64749   0.48445   0.60105   0.55711
C          C       0.50598   0.41795   0.59193  -0.05213
C          C       0.40985   0.47242   0.61498  -0.10418
C          C       0.27846   0.41036   0.61369   0.05449
C          C       0.24148   0.29490   0.59235  -0.11994
C          C       0.33646   0.24050   0.56826  -0.04841
C          C       0.46921   0.30249   0.56610   0.01901
C          C       0.56711   0.24352   0.53359   0.58158
C          C       0.28907   0.11582   0.54538   0.58450
C          C       0.88407   0.80091   0.04857   0.15087
C          C       0.06711   0.75689   0.06209   0.13641
C          C       0.04070   0.51150   0.18745   0.14906
C          C       0.21286   0.45247   0.20788   0.15071
C          C       0.35072   0.01840   0.10250   0.55878
C          C       0.49253   0.08424   0.09420  -0.04991
C          C       0.58788   0.02884   0.11681  -0.10553
C          C       0.71956   0.09013   0.11579   0.05247
C          C       0.75763   0.20562   0.09473  -0.11746
C          C       0.66343   0.26092   0.07093  -0.04803
C          C       0.53034   0.19987   0.06900   0.01895
C          C       0.43353   0.25988   0.03673   0.57932
C          C       0.71191   0.38524   0.04743   0.58630
C          C       0.88329   0.29979   0.44834   0.15002
C          C       0.06604   0.25533   0.43440   0.13600
C          C       0.03772   0.00905   0.31102   0.14691
C          C       0.20704   0.94628   0.28944   0.14929
C          C       0.35077   0.51625   0.39769   0.55676
C          C       0.49243   0.58227   0.40710  -0.05223
C          C       0.58821   0.52781   0.38336  -0.10433
C          C       0.71970   0.58956   0.38454   0.05360
C          C       0.75720   0.70479   0.40649  -0.11772
C          C       0.66265   0.75927   0.43129  -0.04882
C          C       0.52981   0.69745   0.43354   0.01952
C          C       0.43224   0.75653   0.46628   0.58095
C          C       0.71056   0.88387   0.45457   0.58619
C          C       0.11898   0.20065   0.95057   0.15093
C          C       0.93579   0.24423   0.93677   0.13542
C          C       0.96162   0.48897   0.81042   0.14810
C          C       0.79081   0.54980   0.78969   0.15005
C          C       0.65126   0.98474   0.89838   0.55636
C          C       0.50948   0.91817   0.90626  -0.04947
C          C       0.41370   0.97311   0.88355  -0.10479
C          C       0.28218   0.91118   0.88398   0.05276
C          C       0.24471   0.79542   0.90436  -0.11881
C          C       0.33928   0.74056   0.92807  -0.04780
C          C       0.47215   0.80225   0.93082   0.01913
C          C       0.56927   0.74249   0.96308   0.57915
C          C       0.29152   0.61600   0.95085   0.58450
N          N       0.13191   0.80552   0.52169  -0.18898
N          N       0.01543   0.83409   0.53078  -0.18651
N          N       0.99159   0.65796   0.57662  -0.34378
N          N       0.91355   0.00638   0.61765  -0.18805
N          N       0.80634   0.04732   0.63200  -0.18854
N          N       0.88996   0.01905   0.74915  -0.33698
N          N       0.17786   0.46560   0.63723   0.52170
N          N       0.86788   0.69512   0.02076  -0.18863
N          N       0.98476   0.66714   0.02898  -0.18620
N          N       0.00809   0.84317   0.07526  -0.34389
N          N       0.08962   0.49778   0.11593  -0.18920
N          N       0.19919   0.45996   0.12922  -0.18680
N          N       0.11495   0.48460   0.24707  -0.33813
N          N       0.81923   0.03371   0.13895   0.52169
N          N       0.86730   0.19460   0.47717  -0.18940
N          N       0.98409   0.16636   0.46865  -0.18632
N          N       0.00697   0.34136   0.42072  -0.34242
N          N       0.08636   0.99393   0.38229  -0.18804
N          N       0.19408   0.95361   0.36820  -0.18824
N          N       0.11041   0.98076   0.25089  -0.33754
N          N       0.81981   0.53418   0.36007   0.52260
N          N       0.13510   0.30666   0.97794  -0.19006
N          N       0.01805   0.33435   0.96953  -0.18458
N          N       0.99499   0.15799   0.92398  -0.34386
N          N       0.91333   0.50392   0.88193  -0.18818
N          N       0.80463   0.54294   0.86838  -0.18742
N          N       0.88778   0.51617   0.75064  -0.33949
N          N       0.18200   0.96698   0.86087   0.52295
O          O       0.59943   0.26099   0.46224  -0.51689
O          O       0.60325   0.17628   0.58346  -0.53524
O          O       0.36526   0.06814   0.50697  -0.48887
O          O       0.17316   0.06644   0.56552  -0.56884
O          O       0.06076   0.41901   0.61464  -0.36689
O          O       0.20672   0.55452   0.67719  -0.28962
O          O       0.67281   0.58566   0.62508  -0.53544
O          O       0.73574   0.42865   0.58687  -0.54618
O          O       0.40202   0.24297   0.96516  -0.51847
O          O       0.39728   0.32761   0.08625  -0.53312
O          O       0.63533   0.43347   0.01010  -0.48964
O          O       0.82887   0.43349   0.06589  -0.56825
O          O       0.93699   0.08086   0.11789  -0.36820
O          O       0.78880   0.94334   0.17712  -0.28804
O          O       0.32394   0.91631   0.12469  -0.53873
O          O       0.26329   0.07533   0.08956  -0.54378
O          O       0.39947   0.73897   0.53754  -0.51660
O          O       0.39658   0.82403   0.41639  -0.53588
O          O       0.63475   0.93165   0.49327  -0.48985
O          O       0.82648   0.93312   0.43436  -0.56991
O          O       0.93727   0.58054   0.38191  -0.36864
O          O       0.78989   0.44536   0.32000  -0.29003
O          O       0.32498   0.41562   0.37231  -0.53573
O          O       0.26240   0.57155   0.41284  -0.54562
O          O       0.59914   0.75767   0.03496  -0.51751
O          O       0.60753   0.67677   0.91286  -0.53374
O          O       0.36969   0.56763   0.98654  -0.48863
O          O       0.17420   0.56744   0.93368  -0.56803
O          O       0.06428   0.91928   0.88201  -0.36725
O          O       0.21165   0.05734   0.82270  -0.28916
O          O       0.67706   0.08622   0.87503  -0.53599
O          O       0.73933   0.92896   0.91288  -0.54548

