data_crystal

_audit_creation_method 'AiiDA-DDEC plugin'

_cell_length_a        10.75126
_cell_length_b        16.68225
_cell_length_c        13.90099

_cell_angle_alpha     74.53362
_cell_angle_beta     77.78845
_cell_angle_gamma     87.79056

_symmetry_space_group_name_Hall 'P 1'
_symmetry_space_group_name_H-M  'P 1'

loop_
_symmetry_equiv_pos_as_xyz
 'x,y,z'

loop_
_atom_site_label
_atom_site_type_symbol
_atom_site_fract_x
_atom_site_fract_y
_atom_site_fract_z
_atom_site_charge
Ni         Ni      0.65070   0.01536   0.46405   1.01228
Ni         Ni      0.49444   0.83076   0.48928   0.96036
Ni         Ni      0.35293   0.98351   0.53413   1.01623
Ni         Ni      0.50953   0.16594   0.51135   0.96227
H          H       0.20124   0.69088   0.47700   0.13105
H          H       0.49276   0.68727   0.78463   0.12875
H          H       0.12627   0.31788   0.64357   0.11532
H          H       0.12003   0.61505   0.64133   0.11518
H          H       0.29377   0.89747   0.86057   0.12923
H          H       0.35728   0.68511   0.10018   0.13433
H          H       0.78447   0.39079   0.97973   0.11278
H          H       0.67101   0.68846   0.87753   0.11327
H          H       0.98087   0.76981   0.73914   0.12180
H          H       0.84992   0.76935   0.84387   0.10266
H          H       0.82390   0.74342   0.73197   0.10683
H          H       0.16507   0.92837   0.09351   0.38298
H          H       0.29575   0.64438   0.69903   0.10632
H          H       0.29960   0.60195   0.83141   0.10999
H          H       0.14941   0.61695   0.79315   0.10633
H          H       0.12024   0.41562   0.91220   0.11942
H          H       0.98237   0.37452   0.88680   0.10493
H          H       0.97864   0.39107   0.01062   0.10382
H          H       0.30304   0.26322   0.69267   0.10861
H          H       0.16958   0.24501   0.79855   0.10198
H          H       0.32829   0.24548   0.82039   0.12028
H          H       0.79268   0.68236   0.52158   0.12532
H          H       0.98436   0.90938   0.50186   0.13416
H          H       0.49337   0.97370   0.36637   0.41440
H          H       0.80173   0.30561   0.52801   0.13198
H          H       0.51028   0.31353   0.21837   0.12985
H          H       0.87715   0.67982   0.36019   0.11572
H          H       0.87997   0.38233   0.36426   0.11513
H          H       0.70340   0.10330   0.13742   0.12933
H          H       0.63349   0.31662   0.90151   0.13455
H          H       0.21277   0.61041   0.02305   0.11278
H          H       0.32725   0.31311   0.12720   0.11256
H          H       0.01820   0.23117   0.26551   0.12023
H          H       0.14865   0.23259   0.16014   0.10321
H          H       0.17524   0.25735   0.27259   0.10599
H          H       0.82227   0.07248   0.90338   0.38308
H          H       0.70550   0.35335   0.30630   0.10728
H          H       0.70194   0.39565   0.17378   0.11007
H          H       0.85200   0.38103   0.21228   0.10640
H          H       0.87686   0.58511   0.09339   0.11919
H          H       0.01464   0.62647   0.11860   0.10460
H          H       0.01793   0.61041   0.99462   0.10351
H          H       0.69929   0.73597   0.31075   0.10768
H          H       0.83348   0.75130   0.20576   0.10236
H          H       0.67503   0.75228   0.18276   0.11967
H          H       0.21046   0.31580   0.48092   0.12520
H          H       0.02077   0.08960   0.49484   0.13412
H          H       0.51207   0.02346   0.63320   0.41579
C          C       0.10904   0.71993   0.48881  -0.11628
C          C       0.06524   0.52679   0.56743   0.04380
C          C       0.00020   0.58485   0.50120  -0.03628
C          C       0.06637   0.44000   0.56829   0.04256
C          C       0.40790   0.83732   0.70063   0.59134
C          C       0.39675   0.79698   0.81183  -0.04379
C          C       0.59504   0.56311   0.94983   0.04687
C          C       0.44575   0.71736   0.84268  -0.12148
C          C       0.46699   0.58628   0.97607  -0.05109
C          C       0.99729   0.67398   0.50105   0.08978
C          C       0.13038   0.38370   0.63813  -0.28559
C          C       0.12752   0.55135   0.63631  -0.27511
C          C       0.62738   0.47641   0.97685   0.04637
C          C       0.43009   0.67475   0.94627   0.08908
C          C       0.33364   0.83642   0.88506  -0.11097
C          C       0.19510   0.49658   0.69797   0.16416
C          C       0.37004   0.71576   0.01902  -0.12115
C          C       0.19690   0.41034   0.69863   0.15474
C          C       0.75852   0.45533   0.95585  -0.28361
C          C       0.69502   0.62326   0.89843  -0.28720
C          C       0.25466   0.83367   0.07061   0.55516
C          C       0.81996   0.60045   0.87595   0.15746
C          C       0.85313   0.51448   0.90861   0.16790
C          C       0.89050   0.73915   0.78318  -0.18128
C          C       0.24949   0.60075   0.77110  -0.19036
C          C       0.01616   0.41413   0.92818  -0.19443
C          C       0.32172   0.79598   0.98893  -0.05682
C          C       0.26549   0.27342   0.76840  -0.18390
C          C       0.88135   0.71571   0.51152  -0.12556
C          C       0.87704   0.80066   0.50725  -0.04707
C          C       0.98824   0.84419   0.50158  -0.11218
C          C       0.10463   0.80317   0.49306  -0.04326
C          C       0.75422   0.84463   0.50222   0.59792
C          C       0.22464   0.84615   0.49180   0.59617
C          C       0.89432   0.27729   0.51445  -0.11708
C          C       0.93666   0.47058   0.43724   0.04279
C          C       0.00221   0.41254   0.50311  -0.03611
C          C       0.93619   0.55746   0.43590   0.04181
C          C       0.59439   0.16231   0.29948   0.59107
C          C       0.60341   0.20370   0.18876  -0.04216
C          C       0.40278   0.43841   0.05415   0.04728
C          C       0.55499   0.28367   0.15946  -0.12365
C          C       0.53065   0.41518   0.02752  -0.05069
C          C       0.00572   0.32353   0.50249   0.08948
C          C       0.87234   0.61394   0.36606  -0.28357
C          C       0.87335   0.44609   0.36896  -0.27506
C          C       0.37033   0.52513   0.02698   0.04521
C          C       0.56744   0.32660   0.05628   0.08970
C          C       0.66369   0.16458   0.11433  -0.11131
C          C       0.80564   0.50105   0.30743   0.16518
C          C       0.62395   0.28574   0.98237  -0.12022
C          C       0.80423   0.58727   0.30661   0.15413
C          C       0.23904   0.54599   0.04779  -0.28208
C          C       0.30308   0.37826   0.10615  -0.28616
C          C       0.73414   0.16735   0.92806   0.55634
C          C       0.17815   0.40094   0.12909   0.15779
C          C       0.14465   0.48678   0.09586   0.16565
C          C       0.10834   0.26213   0.22150  -0.18016
C          C       0.75172   0.39697   0.23416  -0.19211
C          C       0.98093   0.58694   0.07708  -0.19543
C          C       0.67229   0.20537   0.01090  -0.05652
C          C       0.73680   0.72426   0.23577  -0.18335
C          C       0.12204   0.28229   0.49072  -0.12404
C          C       0.12710   0.19773   0.49285  -0.04894
C          C       0.01627   0.15429   0.49730  -0.11209
C          C       0.89942   0.19472   0.50745  -0.04266
C          C       0.25015   0.15405   0.49704   0.59730
C          C       0.77954   0.15205   0.50770   0.59497
O          O       0.35470   0.90718   0.67474  -0.56783
O          O       0.92046   0.65395   0.82522  -0.14791
O          O       0.25915   0.51636   0.76328  -0.13187
O          O       0.97996   0.49909   0.89153  -0.13534
O          O       0.32799   0.80575   0.47536  -0.58339
O          O       0.26369   0.36026   0.76445  -0.14329
O          O       0.20735   0.91095   0.03302  -0.49256
O          O       0.24032   0.80130   0.16219  -0.47856
O          O       0.47093   0.79831   0.63906  -0.54297
O          O       0.50206   0.95226   0.43699  -0.88517
O          O       0.21626   0.91749   0.50926  -0.55312
O          O       0.74050   0.91329   0.52697  -0.56424
O          O       0.67329   0.80972   0.46922  -0.57648
O          O       0.64440   0.09108   0.32381  -0.56758
O          O       0.07794   0.34740   0.18066  -0.14684
O          O       0.74160   0.48131   0.24206  -0.13179
O          O       0.01784   0.50211   0.11329  -0.13254
O          O       0.67597   0.19172   0.52607  -0.58129
O          O       0.73628   0.63709   0.24181  -0.14262
O          O       0.78502   0.09101   0.96420  -0.49264
O          O       0.74148   0.19881   0.83692  -0.47886
O          O       0.53624   0.20177   0.36247  -0.54248
O          O       0.50233   0.04518   0.56294  -0.88649
O          O       0.78836   0.08163   0.48758  -0.55405
O          O       0.26521   0.08617   0.47048  -0.56631
O          O       0.33059   0.18824   0.53126  -0.57617

