data_crystal

_audit_creation_method 'AiiDA-DDEC plugin'

_cell_length_a        12.14665
_cell_length_b        12.10328
_cell_length_c        12.21790

_cell_angle_alpha     92.11604
_cell_angle_beta     91.72676
_cell_angle_gamma     91.48841

_symmetry_space_group_name_Hall 'P 1'
_symmetry_space_group_name_H-M  'P 1'

loop_
_symmetry_equiv_pos_as_xyz
 'x,y,z'

loop_
_atom_site_label
_atom_site_type_symbol
_atom_site_fract_x
_atom_site_fract_y
_atom_site_fract_z
_atom_site_charge
Fe         Fe      0.31879   0.31821   0.32029   0.37615
Fe         Fe      0.81528   0.81473   0.81436   0.38126
H          H       0.87436   0.58496   0.68547   0.10880
H          H       0.32098   0.37558   0.05348   0.10905
H          H       0.04786   0.95549   0.76852   0.10767
H          H       0.27674   0.58639   0.32029   0.11087
H          H       0.74442   0.32489   0.94880   0.10240
H          H       0.73514   0.43577   0.05013   0.09881
H          H       0.89506   0.31450   0.09102   0.11206
H          H       0.94502   0.33356   0.95817   0.09954
H          H       0.97345   0.53921   0.00495   0.10030
H          H       0.93137   0.51522   0.14071   0.11102
H          H       0.19811   0.58419   0.89904   0.09784
H          H       0.30765   0.68649   0.89543   0.10282
H          H       0.32151   0.54743   0.74116   0.11119
H          H       0.30280   0.68323   0.69622   0.09910
H          H       0.12109   0.50060   0.69993   0.11293
H          H       0.09956   0.63842   0.65900   0.10172
H          H       0.67839   0.86454   0.58131   0.10643
H          H       0.04227   0.31568   0.35975   0.10495
H          H       0.76792   0.05050   0.94963   0.10831
H          H       0.31620   0.26574   0.58294   0.10987
H          H       0.94914   0.73767   0.32409   0.10152
H          H       0.05060   0.73321   0.43396   0.09585
H          H       0.08488   0.89276   0.31155   0.11023
H          H       0.95017   0.93939   0.33360   0.09958
H          H      -0.00078   0.97273   0.53574   0.09831
H          H       0.13634   0.93193   0.51037   0.10823
H          H       0.89912   0.19666   0.58041   0.09871
H          H       0.89296   0.30778   0.68162   0.10213
H          H       0.73900   0.31862   0.54318   0.11188
H          H       0.69185   0.29961   0.67717   0.09958
H          H       0.70221   0.11722   0.49493   0.11298
H          H       0.66048   0.09466   0.63112   0.10044
H          H       0.58493   0.67946   0.86511   0.10887
H          H       0.35909   0.04787   0.31519   0.10945
H          H       0.95432   0.76681   0.04674   0.10617
H          H       0.59269   0.31906   0.27184   0.10443
H          H       0.32629   0.95077   0.74260   0.10408
H          H       0.43643   0.05237   0.73752   0.09750
H          H       0.31424   0.09032   0.89633   0.11173
H          H       0.33332   0.95480   0.94179   0.10023
H          H       0.53733  -0.00010   0.97601   0.10057
H          H       0.51445   0.13787   0.93617   0.11241
H          H       0.58447   0.90064   0.19747   0.09613
H          H       0.68663   0.89484   0.30662   0.10121
H          H       0.54962   0.74082   0.31935   0.10983
H          H       0.68380   0.69322   0.29647   0.09971
H          H       0.49671   0.70248   0.12090   0.10796
H          H       0.63335   0.66091   0.09443   0.09755
C          C       0.84001   0.56507   0.76330   0.09217
C          C       0.24130   0.39652   0.08433   0.09709
C          C       0.06772   0.87604   0.80061   0.09631
C          C       0.25124   0.55571   0.39796   0.10400
C          C       0.78487   0.40043   0.98462  -0.11706
C          C       0.90139   0.37393   0.02544  -0.18421
C          C       0.96781   0.47709   0.06791  -0.11616
C          C       0.23323   0.65184   0.85258  -0.11572
C          C       0.26203   0.61413   0.73606  -0.18634
C          C       0.16081   0.57379   0.66629  -0.11649
C          C       0.75796   0.83211   0.56182   0.09455
C          C       0.07431   0.23752   0.38464   0.09914
C          C       0.79988   0.06948   0.87054   0.09030
C          C       0.39510   0.24255   0.55169   0.09883
C          C       0.98284   0.78020   0.39909  -0.11607
C          C       0.01990   0.89802   0.37210  -0.18772
C          C       0.06219   0.96684   0.47336  -0.11424
C          C       0.85127   0.23229   0.64722  -0.11677
C          C       0.73401   0.25922   0.60891  -0.18490
C          C       0.66660   0.15624   0.56771  -0.11540
C          C       0.56546   0.75915   0.83330   0.09640
C          C       0.38501   0.07944   0.23804   0.10149
C          C       0.87528   0.80003   0.06701   0.09480
C          C       0.56008   0.39713   0.24742   0.09956
C          C       0.40127   0.98526   0.78460  -0.11606
C          C       0.37375   0.02364   0.90123  -0.18544
C          C       0.47564   0.06425   0.96989  -0.11684
C          C       0.65200   0.85290   0.23171  -0.11770
C          C       0.61424   0.73525   0.25845  -0.18724
C          C       0.57087   0.66697   0.15727  -0.11616
N          N       0.83797   0.46464   0.80373  -0.26130
N          N       0.78805   0.48190   0.89975   0.24813
N          N       0.76223   0.58907   0.92010  -0.16802
N          N       0.79538   0.64217   0.83161  -0.16718
N          N       0.15990   0.43761   0.02385  -0.28020
N          N       0.08032   0.44978   0.09830   0.24676
N          N       0.10903   0.41450   0.19888  -0.17063
N          N       0.21334   0.38165   0.18960  -0.16304
N          N       0.16921   0.83718   0.80721  -0.27399
N          N       0.15126   0.73746   0.85141   0.24260
N          N       0.04311   0.71420   0.86844  -0.17414
N          N       0.99020   0.80434   0.83662  -0.17502
N          N       0.20863   0.61718   0.47783  -0.26300
N          N       0.19194   0.54279   0.55523   0.25657
N          N       0.22422   0.44013   0.52697  -0.16511
N          N       0.26186   0.44818   0.42516  -0.15817
N          N       0.79791   0.82773   0.46129  -0.27932
N          N       0.89709   0.78080   0.47956   0.24177
N          N       0.91906   0.76131   0.58709  -0.18236
N          N       0.82788   0.79305   0.63844  -0.17784
N          N       0.01420   0.15734   0.42865  -0.29040
N          N       0.09116   0.07942   0.44489   0.24536
N          N       0.19232   0.10838   0.40992  -0.17828
N          N       0.18072   0.21066   0.37208  -0.17333
N          N       0.80420   0.17052   0.83080  -0.27395
N          N       0.85013   0.15133   0.73243   0.24186
N          N       0.86989   0.04270   0.71038  -0.17078
N          N       0.83839   0.99120   0.80028  -0.16710
N          N       0.47550   0.19956   0.61141  -0.26686
N          N       0.55431   0.18500   0.53733   0.25031
N          N       0.52637   0.21979   0.43661  -0.16332
N          N       0.42314   0.25600   0.44559  -0.16354
N          N       0.46495   0.80018   0.83051  -0.26378
N          N       0.48277   0.89909   0.78547   0.24667
N          N       0.59007   0.92014   0.76352  -0.17002
N          N       0.64280   0.82921   0.79380  -0.17551
N          N       0.42869   0.01875   0.15798  -0.26792
N          N       0.44567   0.09439   0.08148   0.25340
N          N       0.41254   0.19656   0.11067  -0.16153
N          N       0.37419   0.18698   0.21186  -0.15673
N          N       0.83585   0.80374   0.16776  -0.27830
N          N       0.73721   0.85178   0.15061   0.24460
N          N       0.71493   0.87281   0.04360  -0.17968
N          N       0.80539   0.84070   0.99120  -0.17884
N          N       0.61887   0.47614   0.20027  -0.29309
N          N       0.54170   0.55438   0.18544   0.23985
N          N       0.44176   0.52670   0.22482  -0.18129
N          N       0.45438   0.42467   0.26333  -0.17878

