data_crystal

_audit_creation_method 'AiiDA-DDEC plugin'

_cell_length_a        11.08851
_cell_length_b        11.64599
_cell_length_c        10.83813

_cell_angle_alpha     98.63926
_cell_angle_beta     109.03781
_cell_angle_gamma     103.16876

_symmetry_space_group_name_Hall 'P 1'
_symmetry_space_group_name_H-M  'P 1'

loop_
_symmetry_equiv_pos_as_xyz
 'x,y,z'

loop_
_atom_site_label
_atom_site_type_symbol
_atom_site_fract_x
_atom_site_fract_y
_atom_site_fract_z
_atom_site_charge
K          K       0.61430   0.45428   0.35704   0.87878
K          K       0.94849   0.70207   0.63000   0.90973
K          K       0.38572   0.54589   0.64297   0.87929
K          K       0.05205   0.29867   0.37053   0.90902
H          H       0.41699   0.09206   0.89056   0.12739
H          H       0.33088   0.20377   0.71217   0.12101
H          H       0.63608   0.15288   0.56231   0.12228
H          H       0.82387   0.04841   0.84046   0.04860
H          H       0.70788   0.92910   0.70280   0.10186
H          H       0.83706   0.90374   0.57397   0.06507
H          H       0.97927  -0.00131   0.71397   0.04513
H          H       0.03405   0.13378   0.57203   0.07863
H          H       0.88439   0.05130   0.43499   0.08574
H          H       0.86437   0.15923   0.67802   0.21710
H          H       0.71034   0.43855   0.61641   0.37699
H          H       0.16025   0.17555   0.04247   0.12568
H          H       0.20942   0.26868   0.86557   0.11608
H          H       0.88893   0.42771   0.81609   0.11339
H          H       0.71530   0.01976   0.94932   0.35531
H          H       0.79203   0.28375   0.07782   0.10984
H          H       0.68001   0.44118   0.12233   0.07221
H          H       0.55363   0.31019   0.00516   0.08818
H          H       0.46811   0.43356   0.85347   0.08423
H          H       0.60646   0.56362   0.95007   0.09159
H          H       0.70588   0.41454   0.86564   0.28059
H          H       0.83803   0.41316   0.58952   0.38355
H          H       0.58291   0.90780   0.10982   0.12726
H          H       0.66933   0.79613   0.28842   0.12163
H          H       0.36357   0.84642   0.43784   0.12255
H          H       0.17579   0.95094   0.16012   0.04894
H          H       0.29232   0.07053   0.29711   0.10164
H          H       0.16308   0.09643   0.42675   0.06502
H          H       0.02089   0.00128   0.28657   0.04532
H          H       0.96586   0.86623   0.42819   0.07890
H          H       0.11569   0.94861   0.56566   0.08587
H          H       0.13629   0.84093   0.32337   0.21696
H          H       0.29027   0.56057   0.38251   0.37990
H          H       0.83931   0.82366   0.95635   0.12515
H          H       0.79019   0.73051   0.13344   0.11576
H          H       0.11139   0.57266   0.18385   0.11282
H          H       0.28366   0.97823   0.04928   0.35554
H          H       0.20766   0.71609   0.92168   0.11015
H          H       0.32021   0.55939   0.87704   0.07229
H          H       0.44659   0.69008   0.99490   0.08801
H          H       0.53169   0.56656   0.14588   0.08481
H          H       0.39326   0.43650   0.04942   0.09201
H          H       0.29489   0.58649   0.13463   0.28134
H          H       0.16185   0.58682   0.40855   0.38520
C          C       0.63812   0.08258   0.73438  -0.02435
C          C       0.57754   0.07122   0.82992   0.25848
C          C       0.46366   0.10942   0.81833  -0.21093
C          C       0.41649   0.17012   0.71966  -0.08716
C          C       0.48275   0.18971   0.63106  -0.10593
C          C       0.58897   0.14306   0.63583  -0.12804
C          C       0.75045   0.02885   0.73554  -0.07252
C          C       0.90012  -0.00181   0.61959  -0.03470
C          C       0.96382   0.04250   0.52276  -0.18228
C          C       0.91119   0.31547   0.96094  -0.11948
C          C       0.98645   0.23828   0.02763   0.35368
C          C       0.10083   0.23064   0.99403  -0.22078
C          C       0.12888   0.28257   0.89680  -0.06181
C          C       0.05167   0.35388   0.83156  -0.13449
C          C       0.94625   0.37168   0.86540  -0.09397
C          C       0.80379   0.32769  -0.00117   0.13740
C          C       0.61967   0.40006   0.01545  -0.04120
C          C       0.53830   0.48189   0.95650  -0.17907
C          C       0.36178   0.91698   0.26595  -0.02263
C          C       0.42254   0.92881   0.17066   0.25782
C          C       0.53609   0.89030   0.18195  -0.20989
C          C       0.58362   0.82971   0.28071  -0.08832
C          C       0.51731   0.81006   0.36918  -0.10496
C          C       0.41060   0.85612   0.36423  -0.12876
C          C       0.24961   0.97080   0.26489  -0.07220
C          C       0.10012   0.00182   0.38100  -0.03371
C          C       0.03648   0.95729   0.47776  -0.18085
C          C       0.08924   0.68482   0.03881  -0.12032
C          C       0.01372   0.76185   0.97215   0.35376
C          C       0.89921   0.76912   0.00547  -0.22014
C          C       0.87103   0.71698   0.10253  -0.06137
C          C       0.94843   0.64606   0.16813  -0.13451
C          C       0.05433   0.62884   0.13476  -0.09310
C          C       0.19643   0.67270   0.00073   0.13705
C          C       0.38034   0.60023   0.98422  -0.04170
C          C       0.46150   0.51831   0.04319  -0.17924
S          S       0.45274   0.29212   0.52773   1.17404
S          S       0.08125   0.40949   0.69694   1.15553
S          S       0.54772   0.70774   0.47251   1.17381
S          S       0.91882   0.59018   0.30262   1.15590
N          N       0.81254   0.06840   0.64336  -0.34158
N          N       0.71412   0.38364   0.95049  -0.18426
N          N       0.18795   0.93174   0.35760  -0.34184
N          N       0.28590   0.61650   0.04913  -0.18510
O          O       0.62386   0.02089   0.93575  -0.44046
O          O       0.31446   0.29635   0.49543  -0.65770
O          O       0.55052   0.41321   0.61815  -0.70476
O          O       0.48604   0.25405   0.40952  -0.63900
O          O       0.95125   0.17874   0.10593  -0.59620
O          O       0.20095   0.37773   0.68877  -0.66636
O          O       0.95851   0.34379   0.57607  -0.63582
O          O       0.10196   0.54269   0.72726  -0.65017
O          O       0.37563   0.97877   0.06414  -0.44281
O          O       0.68598   0.70365   0.50453  -0.65779
O          O       0.45025   0.58653   0.38233  -0.70490
O          O       0.51471   0.74579   0.59089  -0.63862
O          O       0.04911   0.82182   0.89431  -0.59644
O          O       0.79914   0.62214   0.31085  -0.66648
O          O       0.04152   0.65635   0.42377  -0.63650
O          O       0.89828   0.45710   0.27205  -0.64866
O          O       0.79343   0.47604   0.60315  -0.86664
O          O       0.20768   0.52492   0.39709  -0.87131

