data_crystal

_audit_creation_method 'AiiDA-DDEC plugin'

_cell_length_a        17.71746
_cell_length_b        18.93409
_cell_length_c        18.97043

_cell_angle_alpha     90.04641
_cell_angle_beta     90.04747
_cell_angle_gamma     90.00370

_symmetry_space_group_name_Hall 'P 1'
_symmetry_space_group_name_H-M  'P 1'

loop_
_symmetry_equiv_pos_as_xyz
 'x,y,z'

loop_
_atom_site_label
_atom_site_type_symbol
_atom_site_fract_x
_atom_site_fract_y
_atom_site_fract_z
_atom_site_charge
Cd         Cd      0.00428   0.56954   0.43258   0.93409
Cd         Cd      0.00442   0.93006   0.06837   0.93385
Cd         Cd      0.50362   0.56715   0.06881   0.93403
Cd         Cd      0.50441   0.93334   0.43145   0.93439
Cd         Cd      0.99550   0.43135   0.56695   0.93336
Cd         Cd      0.99558   0.06849   0.93335   0.93416
Cd         Cd      0.49615   0.43140   0.93049   0.93393
Cd         Cd      0.49561   0.06829   0.57004   0.93405
H          H       0.80781   0.70689   0.53139   0.13752
H          H       0.81936   0.72097   0.30541   0.12482
H          H       0.70316   0.79888   0.30496   0.13196
H          H       0.69285   0.78573   0.53125   0.13372
H          H       0.80769   0.79269   0.96852   0.13404
H          H       0.81953   0.77888   0.19453   0.12419
H          H       0.70332   0.70097   0.19502   0.13180
H          H       0.69274   0.71384   0.96870   0.13348
H          H       0.30841   0.46816   0.20795   0.13438
H          H       0.31678   0.69496   0.21762   0.12836
H          H       0.20139   0.69544   0.29637   0.13101
H          H       0.19403   0.46838   0.28726   0.13354
H          H       0.30723   0.03016   0.29367   0.13448
H          H       0.32014   0.80366   0.28101   0.12823
H          H       0.20422   0.80215   0.20275   0.12684
H          H       0.19235   0.02888   0.21485   0.13392
H          H       0.19261   0.29340   0.46995   0.13453
H          H       0.17999   0.28130   0.69600   0.12794
H          H       0.29592   0.20298   0.69758   0.12706
H          H       0.30752   0.21453   0.47126   0.13390
H          H       0.19301   0.20644   0.03007   0.13432
H          H       0.17948   0.21916   0.80407   0.12801
H          H       0.29542   0.29746   0.80248   0.12699
H          H       0.30792   0.28530   0.02874   0.13372
H          H       0.69146   0.53144   0.79200   0.13376
H          H       0.68379   0.30460   0.78249   0.12818
H          H       0.79924   0.30436   0.70382   0.12789
H          H       0.80588   0.53145   0.71272   0.13365
H          H       0.69239   0.96838   0.70681   0.13407
H          H       0.68073   0.19481   0.72107   0.12408
H          H       0.79686   0.19523   0.79905   0.13107
H          H       0.80732   0.96853   0.78563   0.13398
C          C       0.81948   0.71024   0.41834   0.01142
C          C       0.88690   0.66385   0.41865   0.52693
C          C       0.78431   0.72759   0.48261  -0.08864
C          C       0.79078   0.73580   0.35396  -0.09084
C          C       0.72685   0.77826   0.35373  -0.09290
C          C       0.69203   0.79604   0.41811   0.01004
C          C       0.62455   0.84237   0.41853   0.52685
C          C       0.72107   0.77094   0.48252  -0.08577
C          C       0.81949   0.78951   0.08158   0.01205
C          C       0.88685   0.83597   0.08130   0.52604
C          C       0.78426   0.77206   0.01731  -0.08594
C          C       0.79089   0.76399   0.14598  -0.09017
C          C       0.72696   0.72153   0.14623  -0.09275
C          C       0.69204   0.70368   0.08186   0.00905
C          C       0.62441   0.65754   0.08151   0.52778
C          C       0.72102   0.72870   0.01743  -0.08497
C          C       0.31848   0.58162   0.20907   0.01310
C          C       0.38561   0.58132   0.16242   0.52768
C          C       0.28437   0.51713   0.22782  -0.08633
C          C       0.28906   0.64625   0.23358  -0.09447
C          C       0.22556   0.64650   0.27646  -0.09229
C          C       0.19177   0.58192   0.29561   0.01041
C          C       0.12456   0.58163   0.34213   0.52729
C          C       0.22147   0.51727   0.27147  -0.08453
C          C       0.31958   0.91692   0.29108   0.01316
C          C       0.38696   0.91812   0.33750   0.52743
C          C       0.28404   0.98102   0.27329  -0.08562
C          C       0.29132   0.85207   0.26585  -0.09329
C          C       0.22751   0.85125   0.22324  -0.09034
C          C       0.19226   0.91545   0.20512   0.01142
C          C       0.12465   0.91553   0.15898   0.52795
C          C       0.22088   0.98031   0.22992  -0.08471
C          C       0.18043   0.29107   0.58297   0.01273
C          C       0.11304   0.33749   0.58186   0.52757
C          C       0.21588   0.27312   0.51900  -0.08644
C          C       0.20877   0.26598   0.64770  -0.09363
C          C       0.27257   0.22336   0.64856  -0.08914
C          C       0.30774   0.20508   0.58448   0.01056
C          C       0.37536   0.15892   0.58445   0.52776
C          C       0.27905   0.22974   0.51973  -0.08431
C          C       0.18037   0.20905   0.91707   0.01330
C          C       0.11303   0.16255   0.91820   0.52736
C          C       0.21607   0.22685   0.98102  -0.08585
C          C       0.20846   0.23433   0.85235  -0.09332
C          C       0.27227   0.27696   0.85149  -0.09002
C          C       0.30771   0.29505   0.91554   0.01094
C          C       0.37545   0.34108   0.91557   0.52830
C          C       0.27925   0.27024   0.98028  -0.08445
C          C       0.68174   0.41795   0.79094   0.01163
C          C       0.61454   0.41810   0.83745   0.52825
C          C       0.71567   0.48252   0.77217  -0.08448
C          C       0.71138   0.35337   0.76651  -0.09345
C          C       0.77491   0.35326   0.72367  -0.08860
C          C       0.80847   0.41793   0.70448   0.01164
C          C       0.87559   0.41843   0.65785   0.52518
C          C       0.77858   0.48252   0.72855  -0.08571
C          C       0.68066   0.08165   0.71025   0.01132
C          C       0.61322   0.08133   0.66394   0.52703
C          C       0.71585   0.01725   0.72754  -0.08547
C          C       0.70932   0.14616   0.73586  -0.08981
C          C       0.77321   0.14638   0.77834  -0.09325
C          C       0.80806   0.08188   0.79606   0.01005
C          C       0.87550   0.08148   0.84240   0.52707
C          C       0.77908   0.01734   0.77088  -0.08593
Cl         Cl      0.08065   0.53871   0.54376  -0.41712
Cl         Cl      0.08095   0.96138   0.95756  -0.41691
Cl         Cl      0.57972   0.45533   0.03884  -0.41772
Cl         Cl      0.58006   0.04508   0.46218  -0.41762
Cl         Cl      0.91921   0.46205   0.45577  -0.41693
Cl         Cl      0.91999   0.03808   0.04494  -0.41763
Cl         Cl      0.41925   0.54253   0.96122  -0.41666
Cl         Cl      0.41904   0.95731   0.53840  -0.41699
O          O       0.92545   0.65773   0.47562  -0.44304
O          O       0.90582   0.62979   0.36369  -0.44002
O          O       0.61018   0.88229   0.36635  -0.43801
O          O       0.58117   0.84245   0.47264  -0.44298
O          O       0.92539   0.84219   0.02441  -0.44250
O          O       0.90578   0.87002   0.13633  -0.43914
O          O       0.60992   0.61781   0.13377  -0.43866
O          O       0.58094   0.65753   0.02740  -0.44320
O          O       0.42539   0.52488   0.15770  -0.44464
O          O       0.40304   0.63584   0.12695  -0.43930
O          O       0.11031   0.63404   0.38187  -0.43852
O          O       0.08115   0.52740   0.34235  -0.44207
O          O       0.42556   0.97524   0.34241  -0.44419
O          O       0.40570   0.86379   0.37273  -0.43855
O          O       0.11061   0.86374   0.11839  -0.43806
O          O       0.08078   0.96947   0.15997  -0.44336
O          O       0.07441   0.34242   0.52484  -0.44429
O          O       0.09429   0.37268   0.63618  -0.43915
O          O       0.38943   0.11840   0.63620  -0.43781
O          O       0.41920   0.15983   0.53062  -0.44317
O          O       0.07449   0.15762   0.97521  -0.44467
O          O       0.09428   0.12727   0.86390  -0.43839
O          O       0.38958   0.38157   0.86385  -0.43788
O          O       0.41937   0.34005   0.96942  -0.44417
O          O       0.57452   0.47438   0.84209  -0.44405
O          O       0.59718   0.36357   0.87292  -0.43957
O          O       0.88980   0.36614   0.61794  -0.43689
O          O       0.91884   0.47276   0.65762  -0.44154
O          O       0.57460   0.02433   0.65775  -0.44272
O          O       0.59428   0.13641   0.62998  -0.43958
O          O       0.88982   0.13376   0.88233  -0.43888
O          O       0.91890   0.02726   0.84247  -0.44257

