data_crystal

_audit_creation_method 'AiiDA-DDEC plugin'

_cell_length_a         8.48187
_cell_length_b         7.60764
_cell_length_c        21.82737

_cell_angle_alpha     89.99678
_cell_angle_beta     90.00577
_cell_angle_gamma     107.26220

_symmetry_space_group_name_Hall 'P 1'
_symmetry_space_group_name_H-M  'P 1'

loop_
_symmetry_equiv_pos_as_xyz
 'x,y,z'

loop_
_atom_site_label
_atom_site_type_symbol
_atom_site_fract_x
_atom_site_fract_y
_atom_site_fract_z
_atom_site_charge
Ag         Ag      0.70170   0.53563   0.17765   0.24562
Ag         Ag      0.77301   0.17868   0.27387   0.29517
Ag         Ag      0.92495   0.88027   0.21357   0.20628
Ag         Ag      0.29843   0.46388   0.67765   0.24505
Ag         Ag      0.22715   0.82130   0.77386   0.29492
Ag         Ag      0.07494   0.11928   0.71357   0.20608
H          H       0.59477   0.25011   0.39143   0.07973
H          H       0.37701   0.69555   0.36522   0.11275
H          H       0.48788   0.71746   0.26201   0.09200
H          H       0.28568   0.64700   0.45475   0.08117
H          H       0.50086   0.20032   0.48062   0.10987
H          H       0.40745   0.19698   0.58788   0.09635
H          H       0.03076   0.55506   0.09594   0.08825
H          H       0.26310   0.41804   0.09186   0.11315
H          H       0.14132   0.26689   0.28155   0.09143
H          H       0.23609   0.04726   0.27065   0.07923
H          H       0.45333   0.28328   0.09861   0.11146
H          H       0.67080   0.12848   0.12011   0.08292
H          H       0.78111   0.08374   0.41578   0.08632
H          H       0.00581   0.64215   0.43351   0.11763
H          H       0.99398   0.62703   0.31943   0.09572
H          H       0.80553   0.15045   0.61976   0.09753
H          H       0.73246   0.06460   0.51223   0.10842
H          H       0.11253   0.78564   0.52134   0.08284
H          H       0.40521   0.74965   0.89139   0.07974
H          H       0.62343   0.30458   0.86527   0.11280
H          H       0.51244   0.28237   0.76205   0.09213
H          H       0.71477   0.35320   0.95469   0.08099
H          H       0.49959   0.79986   0.98062   0.11024
H          H       0.59274   0.80280   0.08792   0.09643
H          H       0.96941   0.44500   0.59593   0.08828
H          H       0.73715   0.58208   0.59179   0.11320
H          H       0.85886   0.73336   0.78148   0.09123
H          H       0.76419   0.95284   0.77055   0.07896
H          H       0.54663   0.71686   0.59854   0.11150
H          H       0.32883   0.87113   0.62024   0.08306
H          H       0.21924   0.91647   0.91582   0.08643
H          H       0.99389   0.35757   0.93341   0.11738
H          H       0.00544   0.37229   0.81931   0.09564
H          H       0.19414   0.84896   0.11967   0.09765
H          H       0.26714   0.93494   0.01216   0.10812
H          H       0.88751   0.21448   0.02143   0.08282
C          C       0.56310   0.35661   0.36526   0.00988
C          C       0.46912   0.46282   0.39221   0.00396
C          C       0.44303   0.59928   0.35168  -0.17797
C          C       0.50463   0.61226   0.29295   0.03427
C          C       0.32091   0.54434   0.48186  -0.00568
C          C       0.41246   0.43475   0.45432   0.01866
C          C       0.43965   0.30016   0.49515  -0.18216
C          C       0.38788   0.29625   0.55512   0.02215
C          C       0.06566   0.49048   0.13607   0.04321
C          C       0.19272   0.41099   0.13389  -0.15175
C          C       0.22059   0.31273   0.18601   0.03039
C          C       0.12296   0.32491   0.23747  -0.00638
C          C       0.33284   0.07879   0.23585   0.00301
C          C       0.33401   0.20536   0.18784   0.02415
C          C       0.45037   0.20827   0.14110  -0.18272
C          C       0.56843   0.11814   0.15163   0.03171
C          C       0.83351   0.97963   0.39802   0.01098
C          C       0.90419   0.87704   0.43825   0.02044
C          C       0.96103   0.74028   0.40792  -0.18816
C          C       0.95505   0.73009   0.34499   0.03522
C          C       0.87313   0.07578   0.59329   0.02219
C          C       0.83363   0.02654   0.53345  -0.18116
C          C       0.92259   0.92171   0.50177  -0.00127
C          C       0.04070   0.87219   0.53892   0.01035
C          C       0.43696   0.64317   0.86523   0.00967
C          C       0.53104   0.53713   0.89221   0.00350
C          C       0.55722   0.40067   0.85171  -0.17746
C          C       0.49563   0.38758   0.79298   0.03388
C          C       0.67938   0.45565   0.98185  -0.00506
C          C       0.58778   0.56525   0.95432   0.01892
C          C       0.56049   0.69967   0.99515  -0.18287
C          C       0.61220   0.70349   0.05513   0.02195
C          C       0.93447   0.50957   0.63604   0.04318
C          C       0.80736   0.58900   0.63385  -0.15182
C          C       0.77947   0.68726   0.68596   0.03032
C          C       0.87718   0.67520   0.73742  -0.00649
C          C       0.66730   0.92119   0.73580   0.00318
C          C       0.66602   0.79457   0.68780   0.02398
C          C       0.54959   0.79170   0.64107  -0.18229
C          C       0.43143   0.88165   0.65167   0.03139
C          C       0.16658   0.02034   0.89802   0.01024
C          C       0.09563   0.12277   0.93823   0.02017
C          C       0.03867   0.25940   0.90785  -0.18825
C          C       0.04455   0.26942   0.84492   0.03617
C          C       0.12656   0.92372   0.09323   0.02172
C          C       0.16603   0.97307   0.03341  -0.18054
C          C       0.07715   0.07805   0.00174  -0.00104
C          C       0.95916   0.12764   0.03894   0.00986
N          N       0.58925   0.50079   0.26980  -0.12585
N          N       0.61955   0.37243   0.30816  -0.12349
N          N       0.30931   0.41375   0.57841  -0.12815
N          N       0.27207   0.53645   0.53969  -0.16873
N          N       0.97158   0.49085   0.18591  -0.16504
N          N       0.00437   0.40757   0.23806  -0.13939
N          N       0.44188   0.98668   0.24284  -0.16914
N          N       0.57151   0.01645   0.20234  -0.19259
N          N       0.83365   0.96931   0.33757  -0.12535
N          N       0.89948   0.84630   0.30928  -0.11859
N          N       0.99572   0.03152   0.62422  -0.10942
N          N       0.07950   0.92716   0.59596  -0.15103
N          N       0.41081   0.49884   0.76981  -0.12591
N          N       0.38050   0.62724   0.80813  -0.12290
N          N       0.69079   0.58604   0.07842  -0.12766
N          N       0.72812   0.46340   0.03969  -0.16939
N          N       0.02866   0.50939   0.68587  -0.16470
N          N       0.99589   0.59272   0.73801  -0.13925
N          N       0.55826   0.01329   0.74281  -0.16937
N          N       0.42846   0.98330   0.70239  -0.19201
N          N       0.16647   0.03060   0.83758  -0.12457
N          N       0.10038   0.15333   0.80926  -0.11937
N          N       0.00404   0.96800   0.12419  -0.10997
N          N       0.92041   0.07257   0.09597  -0.15027

