data_crystal

_audit_creation_method 'AiiDA-DDEC plugin'

_cell_length_a        10.77836
_cell_length_b        11.06121
_cell_length_c        16.77609

_cell_angle_alpha     98.96223
_cell_angle_beta     108.10145
_cell_angle_gamma     90.91235

_symmetry_space_group_name_Hall 'P 1'
_symmetry_space_group_name_H-M  'P 1'

loop_
_symmetry_equiv_pos_as_xyz
 'x,y,z'

loop_
_atom_site_label
_atom_site_type_symbol
_atom_site_fract_x
_atom_site_fract_y
_atom_site_fract_z
_atom_site_charge
Mn         Mn      0.60254   0.72935   0.96307   1.06795
Mn         Mn      0.66937   0.31058   0.43743   1.07088
Mn         Mn      0.75662   0.60025   0.46191   1.08050
Mn         Mn      0.67710   0.37740   0.24753   1.15500
Mn         Mn      0.30079   0.79101   0.94184   1.07415
Mn         Mn      0.39746   0.27065   0.03693   1.06804
Mn         Mn      0.33063   0.68942   0.56257   1.07078
Mn         Mn      0.24339   0.39975   0.53809   1.08055
Mn         Mn      0.32290   0.62259   0.75247   1.15495
Mn         Mn      0.69921   0.20898   0.05816   1.07428
H          H       0.89909  -0.00024   0.13008   0.12358
H          H       0.94634   0.04704   0.29116   0.11888
H          H       0.89184   0.88227   0.36367   0.14325
H          H       0.58448   0.90257   0.37916   0.14472
H          H       0.50473   0.69036   0.29706   0.13626
H          H       0.44621   0.65782   0.13545   0.15039
H          H       0.88866   0.52769   0.86924   0.14826
H          H       0.03760   0.44988   0.78883   0.13248
H          H       0.94782   0.41231   0.62494   0.14345
H          H       0.59705   0.85884   0.61881   0.12516
H          H       0.65961   0.88392   0.78039   0.12247
H          H       0.88118   0.82528   0.86130   0.14166
H          H       0.85931   0.40919   0.40480   0.38073
H          H       0.38986   0.58182   0.91294   0.39333
H          H       0.10091   0.00024   0.86992   0.12349
H          H       0.05366   0.95296   0.70884   0.11891
H          H       0.10816   0.11772   0.63633   0.14326
H          H       0.41552   0.09742   0.62084   0.14472
H          H       0.49528   0.30964   0.70294   0.13625
H          H       0.55379   0.34217   0.86455   0.15035
H          H       0.11135   0.47231   0.13076   0.14821
H          H       0.96240   0.55012   0.21117   0.13227
H          H       0.05218   0.58769   0.37506   0.14328
H          H       0.40295   0.14115   0.38118   0.12524
H          H       0.34039   0.11607   0.21961   0.12260
H          H       0.11883   0.17472   0.13869   0.14168
H          H       0.14069   0.59081   0.59520   0.38056
H          H       0.61015   0.41818   0.08705   0.39336
C          C       0.88217   0.93377   0.16772  -0.02067
C          C       0.90810   0.95679   0.25485  -0.11615
C          C       0.87694   0.86597   0.29561  -0.07381
C          C       0.82287   0.75157   0.24786  -0.10833
C          C       0.78143   0.65666   0.29100   0.59064
C          C       0.79972   0.72887   0.15965  -0.02124
C          C       0.74526   0.60863   0.09909   0.55300
C          C       0.52904   0.95772   0.17732   0.00707
C          C       0.53290   0.05250   0.12159   0.59208
C          C       0.60984   0.10901   0.31279   0.59333
C          C       0.56492   0.98075   0.26633  -0.08751
C          C       0.55485   0.88467   0.30993  -0.05061
C          C       0.51013   0.76706   0.26433  -0.10157
C          C       0.47668   0.74638   0.17647  -0.01658
C          C       0.53737   0.51288   0.61458   0.60042
C          C       0.67733   0.49817   0.66771   0.00213
C          C       0.63372   0.57938   0.80305   0.59341
C          C       0.72346   0.52425   0.75659  -0.09689
C          C       0.85308   0.50522   0.80008  -0.05014
C          C       0.93588   0.46123   0.75437  -0.11096
C          C       0.88996   0.44045   0.66651  -0.01858
C          C       0.69083   0.83718   0.65950  -0.01522
C          C       0.72783   0.85090   0.74725  -0.11421
C          C       0.85102   0.81858   0.79250  -0.07236
C          C       0.93688   0.77541   0.74837  -0.09763
C          C       0.07128   0.74491   0.79696   0.60416
C          C       0.89757   0.76284   0.65931  -0.02048
C          C       0.98183   0.72775   0.60246   0.55064
C          C       0.11783   0.06623   0.83228  -0.02057
C          C       0.09190   0.04321   0.74515  -0.11618
C          C       0.12307   0.13402   0.70439  -0.07378
C          C       0.17713   0.24843   0.75214  -0.10842
C          C       0.21858   0.34334   0.70900   0.59068
C          C       0.20028   0.27113   0.84035  -0.02137
C          C       0.25475   0.39137   0.90091   0.55336
C          C       0.47096   0.04228   0.82268   0.00708
C          C       0.46710   0.94749   0.87841   0.59194
C          C       0.39016   0.89099   0.68721   0.59311
C          C       0.43508   0.01924   0.73367  -0.08742
C          C       0.44516   0.11532   0.69007  -0.05060
C          C       0.48988   0.23294   0.73566  -0.10152
C          C       0.52333   0.25361   0.82353  -0.01656
C          C       0.46263   0.48712   0.38542   0.60022
C          C       0.32268   0.50184   0.33229   0.00222
C          C       0.36629   0.42062   0.19694   0.59340
C          C       0.27654   0.47574   0.24340  -0.09698
C          C       0.14693   0.49478   0.19992  -0.05001
C          C       0.06412   0.53876   0.24563  -0.11099
C          C       0.11004   0.55955   0.33349  -0.01871
C          C       0.30918   0.16282   0.34050  -0.01511
C          C       0.27217   0.14910   0.25275  -0.11412
C          C       0.14898   0.18142   0.20750  -0.07236
C          C       0.06313   0.22459   0.25163  -0.09772
C          C       0.92872   0.25509   0.20304   0.60423
C          C       0.10244   0.23716   0.34069  -0.02062
C          C       0.01818   0.27225   0.39754   0.55102
N          N       0.82532   0.82309   0.12126   0.30777
N          N       0.48525   0.84151   0.13508   0.31356
N          N       0.76311   0.45982   0.62558   0.30904
N          N       0.77305   0.79021   0.61668   0.30872
N          N       0.17468   0.17690   0.87874   0.30782
N          N       0.51476   0.15849   0.86492   0.31362
N          N       0.23689   0.54018   0.37442   0.30905
N          N       0.22695   0.20979   0.38332   0.30883
O          O       0.79242   0.80866   0.03713  -0.48095
O          O       0.62482   0.60866   0.05217  -0.59231
O          O       0.81888   0.52375   0.09698  -0.50109
O          O       0.71857   0.56088   0.24269  -0.55752
O          O       0.80982   0.68282   0.37160  -0.55549
O          O       0.45626   0.82059   0.05031  -0.54025
O          O       0.63920   0.06325   0.10482  -0.54462
O          O       0.43007   0.10792   0.09688  -0.52718
O          O       0.62019   0.19099   0.27030  -0.55553
O          O       0.62937   0.12786   0.39374  -0.55175
O          O       0.72293   0.44911   0.54048  -0.54164
O          O       0.46007   0.41800   0.59268  -0.53336
O          O       0.51447   0.62012   0.59781  -0.55485
O          O       0.51350   0.57166   0.76018  -0.55983
O          O       0.68758   0.62909   0.88007  -0.53737
O          O       0.73101   0.77212   0.53234  -0.47838
O          O       0.10996   0.78740   0.87767  -0.56211
O          O       0.13659   0.68230   0.75709  -0.55047
O          O       0.06837   0.80450   0.60436  -0.49485
O          O       0.95236   0.62008   0.55587  -0.59025
O          O       0.76534   0.42368   0.38783  -0.88925
O          O       0.40238   0.66028   0.89497  -0.88690
O          O       0.20758   0.19134   0.96287  -0.48111
O          O       0.37518   0.39134   0.94783  -0.59223
O          O       0.18113   0.47625   0.90302  -0.50152
O          O       0.28143   0.43912   0.75731  -0.55750
O          O       0.19019   0.31717   0.62840  -0.55549
O          O       0.54375   0.17941   0.94969  -0.54034
O          O       0.36081   0.93675   0.89518  -0.54483
O          O       0.56993   0.89208   0.90312  -0.52681
O          O       0.37981   0.80901   0.72969  -0.55542
O          O       0.37063   0.87213   0.60626  -0.55164
O          O       0.27707   0.55089   0.45951  -0.54149
O          O       0.53993   0.58200   0.40732  -0.53331
O          O       0.48553   0.37988   0.40219  -0.55477
O          O       0.48651   0.42834   0.23982  -0.55966
O          O       0.31242   0.37091   0.11993  -0.53744
O          O       0.26899   0.22788   0.46766  -0.47837
O          O       0.89005   0.21260   0.12233  -0.56199
O          O       0.86342   0.31770   0.24291  -0.55071
O          O       0.93163   0.19550   0.39564  -0.49514
O          O       0.04765   0.37991   0.44413  -0.59052
O          O       0.23467   0.57631   0.61217  -0.88919
O          O       0.59763   0.33972   0.10503  -0.88701

