data_crystal

_audit_creation_method 'AiiDA-DDEC plugin'

_cell_length_a         6.55265
_cell_length_b        15.18276
_cell_length_c        15.03159

_cell_angle_alpha     90.00053
_cell_angle_beta     89.86884
_cell_angle_gamma     90.00527

_symmetry_space_group_name_Hall 'P 1'
_symmetry_space_group_name_H-M  'P 1'

loop_
_symmetry_equiv_pos_as_xyz
 'x,y,z'

loop_
_atom_site_label
_atom_site_type_symbol
_atom_site_fract_x
_atom_site_fract_y
_atom_site_fract_z
_atom_site_charge
Cu         Cu      0.76348   0.59762   0.62076   1.01991
Cu         Cu      0.01004   0.74994   0.50001   0.86613
Cu         Cu      0.74331   0.40251   0.12077   1.02050
Cu         Cu      0.48997   0.25014   0.00005   0.88564
Cu         Cu      0.23646   0.09760   0.87926   1.01967
Cu         Cu      0.98996   0.24994   0.00000   0.86614
Cu         Cu      0.25673   0.90249   0.37923   1.02054
Cu         Cu      0.51002   0.75013   0.49996   0.88549
H          H       0.14232   0.47408   0.74136   0.35267
H          H       0.40397   0.47048   0.73260   0.35090
H          H       0.73948   0.57753   0.88485   0.14490
H          H       0.73495   0.72075   0.13211   0.14153
H          H       0.73015   0.86131   0.88219   0.11880
H          H       0.37303   0.52686   0.23819   0.35285
H          H       0.11063   0.52923   0.23562   0.35153
H          H       0.76484   0.42254   0.38486   0.14507
H          H       0.76525   0.27934   0.63213   0.14150
H          H       0.76392   0.13874   0.38222   0.11835
H          H       0.85750   0.97413   0.75860   0.35229
H          H       0.59587   0.97050   0.76741   0.35116
H          H       0.26047   0.07750   0.61517   0.14497
H          H       0.26503   0.22072   0.36792   0.14162
H          H       0.26979   0.36127   0.61783   0.11898
H          H       0.62710   0.02678   0.26175   0.35325
H          H       0.88949   0.02919   0.26438   0.35194
H          H       0.23517   0.92253   0.11514   0.14506
H          H       0.23471   0.77931   0.86787   0.14154
H          H       0.23607   0.63873   0.11778   0.11825
C          C       0.73424   0.71901   0.87247  -0.02494
C          C       0.73685   0.63985   0.92037  -0.07821
C          C       0.73671   0.63996   0.01319  -0.02961
C          C       0.73455   0.71987   0.05977  -0.11445
C          C       0.73233   0.79776   0.01117   0.04733
C          C       0.73175   0.79906   0.91813  -0.11477
C          C       0.73532   0.71585   0.77207   0.57419
C          C       0.73978   0.55489   0.06225   0.54733
C          C       0.26561   0.55973   0.65306   0.53544
C          C       0.76485   0.28104   0.37249  -0.02433
C          C       0.76577   0.36022   0.42039  -0.07816
C          C       0.76625   0.36012   0.51320  -0.03024
C          C       0.76585   0.28020   0.55979  -0.11364
C          C       0.76533   0.20230   0.51120   0.04673
C          C       0.76503   0.20100   0.41816  -0.11485
C          C       0.76170   0.28417   0.27210   0.57289
C          C       0.76467   0.44520   0.56227   0.54800
C          C       0.24269   0.44044   0.15301   0.53700
C          C       0.26572   0.21898   0.62755  -0.02538
C          C       0.26310   0.13981   0.57964  -0.07787
C          C       0.26327   0.13992   0.48682  -0.02948
C          C       0.26542   0.21983   0.44025  -0.11474
C          C       0.26763   0.29773   0.48885   0.04754
C          C       0.26820   0.29902   0.58189  -0.11509
C          C       0.26464   0.21582   0.72795   0.57399
C          C       0.26022   0.05485   0.43777   0.54762
C          C       0.73430   0.05974   0.84695   0.53522
C          C       0.23514   0.78103   0.12751  -0.02414
C          C       0.23422   0.86020   0.07961  -0.07841
C          C       0.23372   0.86010   0.98679  -0.02995
C          C       0.23412   0.78018   0.94021  -0.11382
C          C       0.23465   0.70228   0.98880   0.04680
C          C       0.23495   0.70098   0.08184  -0.11496
C          C       0.23830   0.78416   0.22790   0.57259
C          C       0.23531   0.94518   0.93773   0.54794
C          C       0.75737   0.94041   0.34698   0.53696
N          N       0.09371   0.60028   0.62231  -0.28577
N          N       0.43381   0.60051   0.61966  -0.29500
N          N       0.36060   0.66465   0.56882  -0.01125
N          N       0.16188   0.66471   0.57033  -0.03161
N          N       0.26855   0.48690   0.70420  -0.61435
N          N       0.72985   0.88188   0.05985   0.52119
N          N       0.41205   0.39939   0.12095  -0.29214
N          N       0.07189   0.40021   0.12085  -0.29004
N          N       0.14137   0.33581   0.06929  -0.02919
N          N       0.34010   0.33537   0.06946  -0.01434
N          N       0.24299   0.51324   0.20417  -0.61432
N          N       0.76407   0.11817   0.55988   0.52222
N          N       0.90623   0.10028   0.87770  -0.28599
N          N       0.56613   0.10052   0.88036  -0.29446
N          N       0.63937   0.16465   0.93121  -0.01117
N          N       0.83808   0.16470   0.92969  -0.03193
N          N       0.73132   0.98692   0.79580  -0.61404
N          N       0.27008   0.38186   0.44017   0.52128
N          N       0.58800   0.89936   0.37905  -0.29168
N          N       0.92816   0.90018   0.37914  -0.28999
N          N       0.85864   0.83580   0.43071  -0.02959
N          N       0.65992   0.83534   0.43053  -0.01423
N          N       0.75710   0.01321   0.29582  -0.61526
N          N       0.23591   0.61816   0.94012   0.52212
O          O       0.75974   0.63637   0.74211  -0.58735
O          O       0.74130   0.48326   0.01597  -0.54101
O          O       0.75781   0.70740   0.54255  -0.80527
O          O       0.74101   0.55231   0.14669  -0.54512
O          O       0.71450   0.78423   0.72699  -0.47685
O          O       0.72506   0.87898   0.14251  -0.34543
O          O       0.73205   0.95105   0.01578  -0.32887
O          O       0.74158   0.36385   0.24217  -0.58731
O          O       0.76835   0.51683   0.51603  -0.54097
O          O       0.73772   0.29265   0.04268  -0.80568
O          O       0.75923   0.44775   0.64668  -0.54548
O          O       0.77709   0.21555   0.22694  -0.47681
O          O       0.76790   0.12105   0.64255  -0.34580
O          O       0.75928   0.04903   0.51582  -0.32939
O          O       0.24023   0.13634   0.75790  -0.58699
O          O       0.25871   0.98323   0.48404  -0.54136
O          O       0.24216   0.20737   0.95749  -0.80514
O          O       0.25901   0.05228   0.35333  -0.54518
O          O       0.28546   0.28421   0.77302  -0.47699
O          O       0.27481   0.37896   0.35750  -0.34543
O          O       0.26790   0.45101   0.48425  -0.32893
O          O       0.25842   0.86385   0.25782  -0.58700
O          O       0.23160   0.01681   0.98398  -0.54088
O          O       0.26230   0.79262   0.45730  -0.80553
O          O       0.24073   0.94774   0.85332  -0.54536
O          O       0.22290   0.71554   0.27306  -0.47686
O          O       0.23208   0.62104   0.85745  -0.34571
O          O       0.24072   0.54902   0.98418  -0.32940

