data_crystal

_audit_creation_method 'AiiDA-DDEC plugin'

_cell_length_a        11.26258
_cell_length_b        13.54970
_cell_length_c        19.65035

_cell_angle_alpha     90.00117
_cell_angle_beta     89.89735
_cell_angle_gamma     90.07547

_symmetry_space_group_name_Hall 'P 1'
_symmetry_space_group_name_H-M  'P 1'

loop_
_symmetry_equiv_pos_as_xyz
 'x,y,z'

loop_
_atom_site_label
_atom_site_type_symbol
_atom_site_fract_x
_atom_site_fract_y
_atom_site_fract_z
_atom_site_charge
Zn         Zn      0.70270   0.99188   0.45862   0.93423
Zn         Zn      0.88538   0.06944   0.36318   0.94290
Zn         Zn      0.79621   0.00954   0.95883   0.93522
Zn         Zn      0.61016   0.93472   0.86374   0.94658
Zn         Zn      0.29741   0.49419   0.04174   0.93690
Zn         Zn      0.11393   0.57133   0.13718   0.94343
Zn         Zn      0.20302   0.51023   0.54411   0.93346
Zn         Zn      0.38486   0.43302   0.63952   0.94105
H          H       0.64785   0.27285   0.28134   0.15357
H          H       0.50324   0.26101   0.48446   0.14080
H          H       0.41719   0.50539   0.35367   0.14212
H          H       0.39075   0.50658   0.23335   0.07586
H          H       0.50981   0.53229   0.17415   0.07145
H          H       0.70996   0.54704   0.19604   0.14240
H          H       0.92194   0.78799   0.26962   0.14136
H          H       0.55813   0.75744   0.33681   0.14574
H          H       0.84694   0.72937   0.78226   0.15334
H          H      -0.00164   0.74290   0.98341   0.14099
H          H       0.08240   0.49872   0.85189   0.14255
H          H       0.10562   0.49719   0.73236   0.07524
H          H       0.98606   0.47046   0.67396   0.07192
H          H       0.78648   0.45700   0.69797   0.14222
H          H       0.57555   0.21542   0.77185   0.14195
H          H       0.94044   0.24495   0.83651   0.14955
H          H       0.34944   0.77523   0.22149   0.15348
H          H       0.49675   0.76281   0.01905   0.14046
H          H       0.57994   0.00857   0.14939   0.14305
H          H       0.60544   0.00951   0.26994   0.07602
H          H       0.48566   0.03572   0.32853   0.07155
H          H       0.28566   0.04931   0.30457   0.14302
H          H       0.07432   0.28833   0.22813   0.14199
H          H       0.44028   0.25973   0.16458   0.14968
H          H       0.14746   0.22870   0.72100   0.15352
H          H       0.00100   0.24162   0.51863   0.13995
H          H       0.91532   0.99660   0.64929   0.14277
H          H       0.88922   0.99569   0.76952   0.07591
H          H       0.00793   0.96992   0.82865   0.07152
H          H       0.20860   0.95572   0.80581   0.14322
H          H       0.42027   0.71526   0.73138   0.14213
H          H       0.05554   0.74409   0.66645   0.14583
C          C       0.53375   0.39406   0.30998   0.25131
C          C       0.59284   0.30469   0.32118  -0.17079
C          C       0.57971   0.25598   0.38350  -0.02699
C          C       0.51124   0.29762   0.43554  -0.11286
C          C       0.45374   0.38736   0.42408  -0.01839
C          C       0.46261   0.43559   0.36092  -0.20727
C          C       0.64024   0.15999   0.39489   0.58718
C          C       0.38346   0.43077   0.48057   0.59697
C          C       0.48627   0.51991   0.22766   0.16878
C          C       0.61986   0.64853   0.26517   0.24868
C          C       0.71538   0.61377   0.22654  -0.20918
C          C       0.82420   0.66453   0.22876  -0.00080
C          C       0.83722   0.74963   0.26820  -0.12028
C          C       0.74104   0.78284   0.30736  -0.03282
C          C       0.63260   0.73216   0.30624  -0.19215
C          C       0.92816   0.62421   0.19068   0.55014
C          C       0.75567   0.87061   0.35184   0.59611
C          C       0.96333   0.60913   0.80957   0.25162
C          C       0.90357   0.69805   0.82143  -0.17014
C          C       0.91835   0.74702   0.88350  -0.02832
C          C       0.98902   0.70603   0.93468  -0.11192
C          C       0.04704   0.61667   0.92254  -0.01788
C          C       0.03655   0.56824   0.85959  -0.20818
C          C       0.85790   0.84287   0.89558   0.58769
C          C       0.11940   0.57365   0.97804   0.59744
C          C       0.01017   0.48330   0.72729   0.16876
C          C       0.87767   0.35476   0.76591   0.24822
C          C       0.78152   0.38998   0.72819  -0.21004
C          C       0.67270   0.33930   0.73097   0.00056
C          C       0.66024   0.25379   0.77004  -0.12086
C          C       0.75704   0.22006   0.80827  -0.03405
C          C       0.86550   0.27069   0.80666  -0.19339
C          C       0.56828   0.37976   0.69368   0.54865
C          C       0.74280   0.13152   0.85212   0.59552
C          C       0.46334   0.89685   0.19294   0.25185
C          C       0.40488   0.80705   0.18179  -0.17082
C          C       0.41906   0.75800   0.11968  -0.02762
C          C       0.48797   0.79969   0.06782  -0.11273
C          C       0.54485   0.88983   0.07924  -0.01727
C          C       0.53498   0.93845   0.14219  -0.20925
C          C       0.35869   0.66186   0.10809   0.58802
C          C       0.61562   0.93306   0.02290   0.59676
C          C       0.50993   0.02302   0.27516   0.16964
C          C       0.37716   0.15079   0.23595   0.24919
C          C       0.28066   0.11568   0.27371  -0.21136
C          C       0.17151   0.16555   0.27017   0.00111
C          C       0.15915   0.25040   0.23042  -0.12079
C          C       0.25642   0.28412   0.19224  -0.03363
C          C       0.36507   0.23405   0.19447  -0.19443
C          C       0.06703   0.12496   0.30774   0.54851
C          C       0.24303   0.37228   0.14798   0.59595
C          C       0.03254   0.10776   0.69268   0.25146
C          C       0.09193   0.19711   0.68136  -0.17079
C          C       0.07853   0.24609   0.61921  -0.02737
C          C       0.00934   0.20475   0.56742  -0.11212
C          C       0.95155   0.11497   0.57897  -0.01723
C          C       0.96088   0.06646   0.64199  -0.20828
C          C       0.13969   0.34199   0.60781   0.58660
C          C       0.88050   0.07158   0.52285   0.59591
C          C       0.98461   0.98212   0.77515   0.16921
C          C       0.11786   0.85366   0.73738   0.24876
C          C       0.21382   0.88894   0.77536  -0.21036
C          C       0.32283   0.83868   0.77249   0.00077
C          C       0.33550   0.75334   0.73328  -0.12177
C          C       0.23880   0.71948   0.69492  -0.03211
C          C       0.13032   0.76982   0.69649  -0.19143
C          C       0.42719   0.87964   0.80975   0.55024
C          C       0.25307   0.63143   0.65071   0.59359
O          O       0.71552   0.12954   0.35153  -0.56555
O          O       0.60987   0.11139   0.44897  -0.53686
O          O       0.39508   0.39349   0.53966  -0.55853
O          O       0.31134   0.50248   0.46728  -0.52594
O          O       0.55356   0.43565   0.24686  -0.22941
O          O       0.50874   0.60508   0.26785  -0.22983
O          O       0.91742   0.55018   0.15170  -0.52960
O          O       0.03054   0.66605   0.19946  -0.54016
O          O       0.84422   0.92716   0.34226  -0.54638
O          O       0.67621   0.88313   0.39891  -0.53861
O          O       0.78130   0.87376   0.85338  -0.56771
O          O       0.89021   0.89135   0.94935  -0.53574
O          O       0.10936   0.61067   0.03737  -0.56201
O          O       0.19193   0.50247   0.96398  -0.52389
O          O       0.94237   0.56724   0.74674  -0.22891
O          O       0.98888   0.39824   0.76783  -0.22978
O          O       0.57841   0.45417   0.65484  -0.52798
O          O       0.46610   0.33779   0.70262  -0.53812
O          O       0.65363   0.07566   0.84248  -0.54563
O          O       0.82293   0.11768   0.89842  -0.53962
O          O       0.28258   0.63158   0.15104  -0.56294
O          O       0.38991   0.61342   0.05409  -0.53867
O          O       0.60425   0.89563   0.96380  -0.56220
O          O       0.68835   0.00448   0.03608  -0.52480
O          O       0.44239   0.93886   0.25580  -0.22956
O          O       0.48869   0.10815   0.23475  -0.23009
O          O       0.07823   0.05234   0.34817  -0.52887
O          O       0.96412   0.16451   0.29771  -0.53752
O          O       0.15487   0.42904   0.15759  -0.54628
O          O       0.32313   0.38503   0.10127  -0.53991
O          O       0.21471   0.37247   0.65121  -0.56429
O          O       0.11014   0.39046   0.55361  -0.53665
O          O       0.89123   0.10873   0.46360  -0.56131
O          O       0.80828  -0.00013   0.53646  -0.52418
O          O       0.05262   0.06600   0.75567  -0.22920
O          O       0.00656   0.89667   0.73514  -0.23004
O          O       0.41627   0.95325   0.84920  -0.52929
O          O       0.53000   0.83926   0.80021  -0.53951
O          O       0.34164   0.57510   0.66022  -0.54601
O          O       0.17328   0.61848   0.60398  -0.53688

