data_crystal

_audit_creation_method 'AiiDA-DDEC plugin'

_cell_length_a         8.96899
_cell_length_b        16.69267
_cell_length_c        17.01125

_cell_angle_alpha     84.80271
_cell_angle_beta     73.58345
_cell_angle_gamma     74.17597

_symmetry_space_group_name_Hall 'P 1'
_symmetry_space_group_name_H-M  'P 1'

loop_
_symmetry_equiv_pos_as_xyz
 'x,y,z'

loop_
_atom_site_label
_atom_site_type_symbol
_atom_site_fract_x
_atom_site_fract_y
_atom_site_fract_z
_atom_site_charge
In         In      0.27447   0.81310   0.51169   1.24865
In         In      0.59296   0.17963   0.49726   1.24715
In         In      0.91965   0.48334   0.83241   1.24916
In         In      0.21322   0.50975   0.19346   1.24819
H          H       0.21062   0.69263   0.39578   0.10883
H          H       0.67326   0.57031   0.23765   0.11789
H          H       0.79746   0.65937   0.29623   0.12474
H          H       0.84286   0.78282   0.30729   0.13088
H          H       0.87371   0.91737   0.34296   0.13121
H          H       0.46409   0.92907   0.55276   0.11207
H          H       0.29416   0.30117   0.62024   0.10587
H          H       0.49270   0.42840   0.75968   0.11798
H          H       0.76449   0.33992   0.69350   0.12666
H          H       0.96391   0.22545   0.66923   0.13008
H          H       0.16927   0.09110   0.63189   0.13113
H          H       0.93704   0.05896   0.45135   0.10934
H          H       0.10459   0.60159   0.70691   0.11236
H          H       0.76831   0.75539   0.58124   0.12155
H          H       0.55446   0.69528   0.67277   0.12728
H          H       0.38160   0.67770   0.78788   0.13023
H          H       0.20881   0.64353   0.92190   0.13108
H          H       0.60874   0.44218   0.95189   0.11808
H          H       0.38686   0.39457   0.31875   0.10727
H          H       0.08814   0.23160   0.43980   0.11544
H          H       0.90365   0.29308   0.35235   0.12430
H          H       0.83276   0.31196   0.23787   0.13107
H          H       0.76948   0.34496   0.10396   0.13167
H          H       0.99084   0.54888   0.07437   0.11485
C          C       0.34030   0.68428   0.37169   0.09186
C          C       0.42948   0.62880   0.30824  -0.10711
C          C       0.59965   0.61752   0.28286  -0.05570
C          C       0.66806   0.66657   0.31522  -0.16376
C          C       0.57012   0.72642   0.37549   0.12275
C          C       0.62463   0.78787   0.40536   0.12450
C          C       0.76105   0.81633   0.36119  -0.14960
C          C       0.77859   0.89099   0.38087  -0.05105
C          C       0.66658   0.93541   0.45006  -0.09693
C          C       0.54885   0.89866   0.49785   0.08423
C          C       0.34976   0.58485   0.26949   0.53200
C          C       0.65165   0.02200   0.46726   0.53569
C          C       0.39501   0.31062   0.63881   0.09262
C          C       0.36943   0.36791   0.69930  -0.11118
C          C       0.50815   0.38051   0.71651  -0.05546
C          C       0.65848   0.33142   0.67981  -0.16286
C          C       0.67695   0.26985   0.62290   0.12001
C          C       0.82419   0.20926   0.58867   0.11886
C          C       0.95808   0.18668   0.62263  -0.15157
C          C       0.07239   0.11207   0.60216  -0.04494
C          C       0.06225   0.06116   0.54205  -0.09764
C          C       0.94419   0.09307   0.50107   0.08375
C          C       0.20714   0.41037   0.74468   0.52922
C          C       0.14890   0.97320   0.52983   0.53570
C          C       0.98479   0.62448   0.69771   0.08934
C          C       0.95250   0.68664   0.63953  -0.10980
C          C       0.79380   0.71022   0.62902  -0.05587
C          C       0.67619   0.67661   0.67963  -0.16239
C          C       0.71323   0.61692   0.74088   0.12352
C          C       0.59605   0.58530   0.80240   0.12125
C          C       0.42971   0.62685   0.82580  -0.15172
C          C       0.33315   0.60793   0.89999  -0.04616
C          C       0.39882   0.54206   0.94941  -0.09738
C          C       0.55594   0.49517   0.91761   0.08479
C          C       0.07420   0.72776   0.59204   0.53029
C          C       0.32184   0.52908   0.03600   0.53790
C          C       0.28190   0.37026   0.32746   0.09401
C          C       0.25678   0.30544   0.38330  -0.10951
C          C       0.11348   0.27937   0.39401  -0.05666
C          C       0.01204   0.31340   0.34538  -0.16065
C          C       0.04787   0.37561   0.28577   0.12129
C          C       0.96426   0.40632   0.22445   0.12161
C          C       0.86715   0.36365   0.20047  -0.15135
C          C       0.83160   0.38190   0.12608  -0.04684
C          C       0.88261   0.44790   0.07635  -0.09839
C          C       0.95620   0.49555   0.10855   0.08202
C          C       0.37578   0.26407   0.42679   0.53123
C          C       0.88454   0.46145   0.98993   0.53239
N          N       0.40764   0.72941   0.40574  -0.31711
N          N       0.52517   0.82876   0.47613  -0.33255
N          N       0.54177   0.26494   0.60085  -0.31987
N          N       0.82826   0.16346   0.52372  -0.33065
N          N       0.87140   0.58980   0.74507  -0.31869
N          N       0.65309   0.51652   0.84776  -0.33129
N          N       0.18016   0.40538   0.28229  -0.31848
N          N      -0.00151   0.47546   0.17886  -0.33492
O          O       0.19465   0.60696   0.28133  -0.56000
O          O       0.43517   0.52387   0.22143  -0.53902
O          O       0.57146   0.05209   0.53892  -0.54754
O          O       0.71076   0.06959   0.40993  -0.54023
O          O       0.08188   0.38960   0.73770  -0.56202
O          O       0.18718   0.46853   0.79469  -0.54152
O          O       0.16250   0.93676   0.46334  -0.54480
O          O       0.20231   0.93066   0.58799  -0.54022
O          O       0.20873   0.71960   0.61044  -0.55907
O          O       0.04483   0.77570   0.53130  -0.53866
O          O       0.36846   0.45905   0.07216  -0.54299
O          O       0.21447   0.58987   0.07743  -0.54353
O          O       0.51983   0.27542   0.40483  -0.55936
O          O       0.33953   0.21308   0.48650  -0.54253
O          O       0.90811   0.53007   0.95304  -0.54679
O          O       0.87206   0.40321   0.94897  -0.53944

