data_crystal

_audit_creation_method 'AiiDA-DDEC plugin'

_cell_length_a         9.83974
_cell_length_b         9.94661
_cell_length_c        19.36716

_cell_angle_alpha     109.13694
_cell_angle_beta     110.65521
_cell_angle_gamma     59.74399

_symmetry_space_group_name_Hall 'P 1'
_symmetry_space_group_name_H-M  'P 1'

loop_
_symmetry_equiv_pos_as_xyz
 'x,y,z'

loop_
_atom_site_label
_atom_site_type_symbol
_atom_site_fract_x
_atom_site_fract_y
_atom_site_fract_z
_atom_site_charge
In         In      0.80453   0.04877   0.74655   1.40064
In         In      0.19548   0.95122   0.25344   1.40062
H          H       0.57519   0.21514   0.94016   0.12686
H          H       0.61082   0.30536   0.04855   0.12321
H          H       0.68937   0.37131   0.18447   0.12289
H          H       0.54037   0.15809   0.30733   0.12182
H          H       0.61748   0.22072   0.44219   0.12654
H          H       0.19944   0.13151   0.96231   0.12871
H          H       0.28570   0.15427   0.06943   0.12504
H          H       0.36748   0.21543   0.20436   0.11962
H          H       0.63886   0.52408   0.29067   0.12312
H          H       0.71164   0.59031   0.42639   0.12668
H          H       0.26739   0.06765   0.74605   0.13354
H          H       0.74778   0.65764   0.53592   0.12832
H          H       0.83044   0.55250   0.74867   0.13286
H          H       0.68564   0.26371   0.54946   0.12722
H          H       0.80056   0.86849   0.03768   0.12887
H          H       0.71430   0.84574   0.93056   0.12520
H          H       0.63252   0.78457   0.79563   0.11974
H          H       0.36114   0.47593   0.70933   0.12302
H          H       0.28835   0.40970   0.57360   0.12660
H          H       0.42481   0.78486   0.05984   0.12658
H          H       0.38919   0.69464   0.95144   0.12321
H          H       0.31064   0.62868   0.81552   0.12278
H          H       0.45965   0.84191   0.69266   0.12202
H          H       0.38255   0.77926   0.55780   0.12654
H          H       0.73262   0.93234   0.25394   0.13355
H          H       0.25224   0.34235   0.46408   0.12823
H          H       0.16957   0.44748   0.25132   0.13285
H          H       0.31437   0.73628   0.45053   0.12730
C          C       0.52876   0.12648   0.79067   0.54251
C          C       0.42985   0.14348   0.83950  -0.02550
C          C       0.47370   0.18536   0.91732  -0.11890
C          C       0.55563   0.28679   0.08211  -0.10945
C          C       0.59931   0.32585   0.15927  -0.09055
C          C       0.57667   0.25377   0.33277  -0.10077
C          C       0.62191   0.28903   0.41001  -0.11266
C          C       0.08751   0.04808   0.81668   0.54037
C          C       0.22288   0.09413   0.85211  -0.01368
C          C       0.26753   0.13505   0.92987  -0.10893
C          C       0.37469   0.20088   0.09352  -0.11378
C          C       0.42233   0.23451   0.17072  -0.09545
C          C       0.63736   0.45534   0.32376  -0.08909
C          C       0.67715   0.49380   0.40105  -0.10853
C          C       0.30314   0.09908   0.80674  -0.06528
C          C       0.39358   0.18242   0.96455   0.05852
C          C       0.44120   0.22320   0.04640   0.10175
C          C       0.53544   0.29901   0.20613   0.09574
C          C       0.58373   0.33544   0.28716   0.09313
C          C       0.67115   0.41174   0.44705   0.10272
C          C       0.71390   0.45159   0.52912   0.05698
C          C       0.75217   0.58095   0.56655  -0.11467
C          C       0.79278   0.61807   0.64474  -0.02267
C          C       0.79707   0.52605   0.68768  -0.06564
C          C       0.75612   0.40001   0.65215  -0.01642
C          C       0.71507   0.36354   0.57407  -0.10976
C          C       0.81685   0.76398   0.68245   0.53950
C          C       0.75562   0.30689   0.69909   0.53889
C          C       0.91250   0.95191   0.18332   0.54017
C          C       0.77712   0.90587   0.14788  -0.01362
C          C       0.73247   0.86496   0.07012  -0.10891
C          C       0.62531   0.79913   0.90647  -0.11360
C          C       0.57768   0.76549   0.82927  -0.09537
C          C       0.36265   0.54466   0.67623  -0.08890
C          C       0.32285   0.50620   0.59894  -0.10884
C          C       0.47125   0.87351   0.20932   0.54261
C          C       0.57016   0.85652   0.16050  -0.02571
C          C       0.52630   0.81465   0.08268  -0.11876
C          C       0.44439   0.71320   0.91788  -0.10977
C          C       0.40072   0.67413   0.84072  -0.09061
C          C       0.42336   0.74622   0.66722  -0.10085
C          C       0.37812   0.71096   0.58998  -0.11274
C          C       0.69687   0.90092   0.19326  -0.06512
C          C       0.60641   0.81759   0.03544   0.05851
C          C       0.55880   0.77680   0.95359   0.10164
C          C       0.46457   0.70098   0.79386   0.09586
C          C       0.41628   0.66456   0.71283   0.09301
C          C       0.32886   0.58826   0.55294   0.10300
C          C       0.28611   0.54840   0.47087   0.05673
C          C       0.24785   0.41903   0.43344  -0.11465
C          C       0.20723   0.38192   0.35526  -0.02284
C          C       0.20294   0.47393   0.31231  -0.06568
C          C       0.24389   0.59997   0.34784  -0.01662
C          C       0.28494   0.63645   0.42592  -0.10944
C          C       0.18316   0.23600   0.31755   0.53961
C          C       0.24439   0.69309   0.30089   0.53903
O          O       0.64547   0.16773   0.82445  -0.55484
O          O       0.50332   0.06597   0.72225  -0.54039
O          O       0.00295   0.05922   0.85692  -0.53416
O          O       0.05475   0.00492   0.74500  -0.55136
O          O       0.84108   0.80379   0.75431  -0.55400
O          O       0.80419   0.85089   0.64253  -0.52541
O          O       0.71054   0.19514   0.66248  -0.56221
O          O       0.79952   0.33638   0.76910  -0.53299
O          O      -0.00294   0.94077   0.14307  -0.53391
O          O       0.94526   0.99508   0.25499  -0.55129
O          O       0.35455   0.83226   0.17555  -0.55516
O          O       0.49669   0.93402   0.27774  -0.54018
O          O       0.15892   0.19619   0.24569  -0.55406
O          O       0.19583   0.14910   0.35747  -0.52555
O          O       0.28947   0.80483   0.33750  -0.56211
O          O       0.20047   0.66359   0.23088  -0.53310

