data_crystal

_audit_creation_method 'AiiDA-DDEC plugin'

_cell_length_a        10.75736
_cell_length_b        13.29042
_cell_length_c        13.32187

_cell_angle_alpha     89.90487
_cell_angle_beta     90.08990
_cell_angle_gamma     89.98472

_symmetry_space_group_name_Hall 'P 1'
_symmetry_space_group_name_H-M  'P 1'

loop_
_symmetry_equiv_pos_as_xyz
 'x,y,z'

loop_
_atom_site_label
_atom_site_type_symbol
_atom_site_fract_x
_atom_site_fract_y
_atom_site_fract_z
_atom_site_charge
Cu         Cu      0.76650   0.34641   0.72765   0.28711
Cu         Cu      0.76663   0.15545   0.77057   0.28685
Cu         Cu      0.26591   0.27250   0.84436   0.28521
Cu         Cu      0.26572   0.22948   0.65391   0.28542
Cu         Cu      0.23350   0.65359   0.27236   0.28697
Cu         Cu      0.23336   0.84456   0.22943   0.28693
Cu         Cu      0.73408   0.72750   0.15564   0.28524
Cu         Cu      0.73428   0.77052   0.34610   0.28544
H          H       0.53648   0.47695   0.78562   0.11051
H          H       0.49091   0.67785   0.53207   0.12268
H          H       0.67871   0.60016   0.45751   0.09665
H          H       0.78846   0.46213   0.54994   0.09080
H          H       0.39354   0.75946   0.63992   0.08678
H          H       0.27548   0.66989   0.60997   0.08499
H          H       0.53504   0.02489   0.71531   0.10996
H          H       0.49506   0.82383   0.96929   0.12437
H          H       0.68515   0.90086   0.04121   0.09723
H          H       0.79312   0.03862   0.94731   0.09209
H          H       0.39424   0.74281   0.86257   0.08660
H          H       0.27628   0.83235   0.89272   0.08493
H          H       0.03611   0.21518   0.97466   0.10995
H          H       0.99459   0.46799   0.17643   0.12321
H          H       0.18268   0.54218   0.09872   0.09674
H          H       0.29053   0.44998   0.96028   0.09116
H          H       0.89493   0.36078   0.25686   0.08659
H          H       0.77703   0.39056   0.16707   0.08504
H          H       0.03553   0.28484   0.52275   0.11029
H          H       0.99544   0.03013   0.32311   0.12376
H          H       0.18393   0.95717   0.40207   0.09698
H          H       0.29135   0.05107   0.53985   0.09174
H          H       0.89579   0.13753   0.24085   0.08674
H          H       0.77777   0.10714   0.33003   0.08378
H          H       0.46352   0.52305   0.21438   0.11051
H          H       0.50909   0.32216   0.46794   0.12250
H          H       0.32129   0.39984   0.54249   0.09671
H          H       0.21154   0.53788   0.45006   0.09090
H          H       0.60646   0.24055   0.36008   0.08674
H          H       0.72452   0.33011   0.39003   0.08505
H          H       0.46495   0.97512   0.28470   0.10991
H          H       0.50494   0.17617   0.03072   0.12439
H          H       0.31484   0.09915   0.95880   0.09726
H          H       0.20688   0.96138   0.05269   0.09203
H          H       0.60576   0.25720   0.13743   0.08673
H          H       0.72372   0.16766   0.10728   0.08483
H          H       0.96389   0.78483   0.02534   0.11008
H          H       0.00541   0.53201   0.82357   0.12312
H          H       0.81732   0.45782   0.90128   0.09661
H          H       0.70947   0.55003   0.03972   0.09124
H          H       0.10507   0.63923   0.74314   0.08659
H          H       0.22297   0.60945   0.83294   0.08493
H          H       0.96446   0.71516   0.47725   0.11009
H          H       0.00455   0.96987   0.67689   0.12380
H          H       0.81607   0.04284   0.59793   0.09707
H          H       0.70865   0.94894   0.46015   0.09189
H          H       0.10421   0.86248   0.75916   0.08683
H          H       0.22222   0.89287   0.66997   0.08382
C          C       0.55190   0.28736   0.87481   0.24813
C          C       0.56650   0.50607   0.71321  -0.03413
C          C       0.50090   0.58483   0.66664   0.21744
C          C       0.53972   0.61892   0.57251  -0.17621
C          C       0.64471   0.57472   0.53009  -0.09447
C          C       0.70613   0.49816   0.58070   0.03241
C          C       0.33138   0.70185   0.67112  -0.03734
C          C       0.55166   0.21375   0.62406   0.24935
C          C       0.56686   0.99559   0.78723  -0.03193
C          C       0.50212   0.91694   0.83460   0.21705
C          C       0.54310   0.88262   0.92816  -0.17719
C          C       0.64941   0.92645   0.96911  -0.09472
C          C       0.70986   0.00288   0.91771   0.03089
C          C       0.33179   0.80038   0.83147  -0.03591
C          C       0.05232   0.12501   0.78649   0.24924
C          C       0.06716   0.28732   0.00399  -0.03285
C          C       0.00261   0.33372   0.08298   0.21665
C          C       0.04256   0.42760   0.11732  -0.17581
C          C       0.14772   0.46983   0.07311  -0.09451
C          C       0.20811   0.41936   0.99632   0.03138
C          C       0.83287   0.32936   0.19938  -0.03615
C          C       0.05200   0.37682   0.71210   0.25031
C          C       0.06699   0.21253   0.49417  -0.03163
C          C       0.00271   0.16518   0.41544   0.21604
C          C       0.04318   0.07116   0.38202  -0.17635
C          C       0.14858   0.02966   0.42690  -0.09495
C          C       0.20872   0.08105   0.50335   0.03109
C          C       0.83329   0.16860   0.29806  -0.03452
C          C       0.44810   0.71264   0.12519   0.24799
C          C       0.43350   0.49394   0.28679  -0.03419
C          C       0.49909   0.41518   0.33336   0.21737
C          C       0.46028   0.38109   0.42749  -0.17611
C          C       0.35529   0.42528   0.46991  -0.09465
C          C       0.29387   0.50185   0.41930   0.03263
C          C       0.66863   0.29815   0.32888  -0.03737
C          C       0.44833   0.78626   0.37594   0.24938
C          C       0.43314   0.00442   0.21277  -0.03182
C          C       0.49788   0.08306   0.16541   0.21712
C          C       0.45690   0.11738   0.07184  -0.17712
C          C       0.35059   0.07356   0.03090  -0.09470
C          C       0.29014   0.99712   0.08229   0.03096
C          C       0.66821   0.19963   0.16853  -0.03583
C          C       0.94768   0.87499   0.21351   0.24925
C          C       0.93284   0.71268   0.99602  -0.03283
C          C      -0.00261   0.66629   0.91702   0.21657
C          C       0.95744   0.57241   0.88269  -0.17591
C          C       0.85227   0.53017   0.92689  -0.09452
C          C       0.79189   0.58065   0.00369   0.03123
C          C       0.16713   0.67065   0.80062  -0.03641
C          C       0.94800   0.62319   0.28791   0.25034
C          C       0.93301   0.78747   0.50583  -0.03166
C          C       0.99729   0.83482   0.58456   0.21598
C          C       0.95681   0.92885   0.61798  -0.17617
C          C       0.85142   0.97035   0.57310  -0.09485
C          C       0.79128   0.91895   0.49665   0.03123
C          C       0.16670   0.83140   0.70194  -0.03440
C          C       0.24926   0.75109   0.75135   0.06241
C          C       0.75074   0.24891   0.24865   0.06233
S          S       0.70511   0.28828   0.88676  -0.25489
S          S       0.70476   0.21308   0.61158  -0.25500
S          S       0.20544   0.11281   0.78756  -0.25408
S          S       0.20515   0.38891   0.71114  -0.25424
S          S       0.29489   0.71173   0.11324  -0.25485
S          S       0.29524   0.78693   0.38842  -0.25483
S          S       0.79456   0.88720   0.21244  -0.25385
S          S       0.79484   0.61110   0.28886  -0.25440
N          N       0.44235   0.28516   0.86739  -0.42048
N          N       0.66707   0.46358   0.67107  -0.17605
N          N       0.44217   0.21589   0.63181  -0.42090
N          N       0.66865   0.03773   0.82795  -0.17733
N          N       0.94280   0.13268   0.78410  -0.42303
N          N       0.16788   0.32929   0.96151  -0.17612
N          N       0.94248   0.36925   0.71448  -0.42280
N          N       0.16798   0.17132   0.53723  -0.17650
N          N       0.55765   0.71485   0.13261  -0.42049
N          N       0.33293   0.53643   0.32893  -0.17598
N          N       0.55782   0.78412   0.36819  -0.42096
N          N       0.33135   0.96228   0.17205  -0.17748
N          N       0.05720   0.86732   0.21590  -0.42309
N          N       0.83212   0.67072   0.03849  -0.17590
N          N       0.05751   0.63076   0.28552  -0.42281
N          N       0.83201   0.82869   0.46277  -0.17667
O          O       0.40261   0.62306   0.71917  -0.20005
O          O       0.40252   0.87916   0.78316  -0.20024
O          O       0.90420   0.28114   0.12115  -0.20013
O          O       0.90398   0.21709   0.37667  -0.20014
O          O       0.59739   0.37694   0.28083  -0.20002
O          O       0.59748   0.12085   0.21684  -0.20038
O          O       0.09579   0.71887   0.87885  -0.19983
O          O       0.09601   0.78292   0.62334  -0.20041

