data_crystal

_audit_creation_method 'AiiDA-DDEC plugin'

_cell_length_a        10.29103
_cell_length_b        10.18325
_cell_length_c        18.31822

_cell_angle_alpha     101.02859
_cell_angle_beta     100.31580
_cell_angle_gamma     93.06416

_symmetry_space_group_name_Hall 'P 1'
_symmetry_space_group_name_H-M  'P 1'

loop_
_symmetry_equiv_pos_as_xyz
 'x,y,z'

loop_
_atom_site_label
_atom_site_type_symbol
_atom_site_fract_x
_atom_site_fract_y
_atom_site_fract_z
_atom_site_charge
Ni         Ni      0.98964   0.24687   0.78247   0.92850
Ni         Ni      0.73659   0.00335   0.71920   0.91305
Ni         Ni      0.00321   0.74647   0.22113   0.93505
Ni         Ni      0.24971   0.99656   0.28198   0.95691
H          H       0.21667   0.48159   0.14305   0.12184
H          H       0.14718   0.33353   0.01723   0.10107
H          H       0.18228   0.05128   0.12672   0.09474
H          H       0.18732   0.03382   0.00644   0.11578
H          H       0.26667   0.50685   0.28268   0.12888
H          H       0.27677   0.29772   0.33872   0.10212
H          H       0.92542   0.57114   0.07348   0.09466
H          H       0.88113   0.40296   0.96386   0.09741
H          H       0.70404   0.14983   0.96127   0.13296
H          H       0.95733   0.49783   0.28897   0.10527
H          H       0.87977   0.25355   0.23836   0.12607
H          H       0.81430   0.16934   0.09918   0.12216
H          H       0.51318   0.77117   0.35269   0.12474
H          H       0.65531   0.83770   0.48021   0.10547
H          H       0.93806   0.83423   0.37083   0.09874
H          H       0.95750   0.85960   0.48872   0.12094
H          H       0.49450   0.71377   0.21294   0.13106
H          H       0.70415   0.70897   0.15867   0.10392
H          H       0.42347   0.07324   0.42916   0.09467
H          H       0.58803   0.11626   0.53875   0.09832
H          H       0.84645   0.28305   0.54149   0.13393
H          H       0.49993   0.04045   0.21381   0.10486
H          H       0.74228   0.11367   0.26466   0.12562
H          H       0.82404   0.17717   0.40332   0.12284
H          H       0.77469   0.51895   0.85456   0.12468
H          H       0.83966   0.66514   0.98022   0.10680
H          H       0.83499   0.94846   0.86893   0.10662
H          H       0.86621   0.97106   0.99042   0.12144
H          H       0.71237   0.49376   0.71507   0.13084
H          H       0.70178   0.70306   0.65918   0.10429
H          H       0.07181   0.41969   0.92827   0.09869
H          H       0.10956   0.59248   0.03662   0.09887
H          H       0.29442   0.83987   0.03919   0.13442
H          H       0.03665   0.48758   0.71159   0.10692
H          H       0.11487   0.73271   0.76039   0.12981
H          H       0.17854   0.82195   0.89827   0.12642
H          H       0.47512   0.22966   0.64712   0.12230
H          H       0.33277   0.17786   0.51928   0.10666
H          H       0.04967   0.17590   0.62817   0.09386
H          H       0.03160   0.13558   0.51086   0.11731
H          H       0.49422   0.27201   0.78684   0.13169
H          H       0.28577   0.26834   0.84116   0.10013
H          H       0.56706   0.92230   0.57410   0.09695
H          H       0.39842   0.88666   0.46669   0.09827
H          H       0.14400   0.71501   0.46533   0.13334
H          H       0.49803   0.96389   0.79164   0.11061
H          H       0.25474   0.90046   0.74465   0.13672
H          H       0.16683   0.83457   0.60532   0.12361
H          H       0.96530   0.01162   0.71590   0.35090
H          H       0.00860   0.98044   0.21331   0.36562
C          C       0.13632   0.11778   0.90441   0.60184
C          C       0.76036   0.20703   0.85992   0.62186
C          C       0.22218   0.39229   0.16775  -0.08712
C          C       0.19827   0.26282   0.12180   0.05743
C          C       0.16736   0.24313   0.03929  -0.09050
C          C       0.20273   0.15378   0.15863   0.06059
C          C       0.16355   0.12722   0.98858  -0.22848
C          C       0.25036   0.40710   0.24643  -0.12069
C          C       0.25527   0.29301   0.27791   0.07004
C          C       0.85995   0.36486   0.07326   0.05561
C          C       0.91104   0.49696   0.10739   0.02809
C          C       0.83351   0.33201   0.99080  -0.07127
C          C       0.76006   0.22661   0.94262  -0.24216
C          C       0.92797   0.45655   0.22850   0.08118
C          C       0.88252   0.32183   0.19958  -0.12436
C          C       0.84569   0.27525   0.12151  -0.06458
C          C       0.87368   0.89861   0.59087   0.59710
C          C       0.78705   0.22799   0.64257   0.61317
C          C       0.60264   0.76958   0.32845  -0.07908
C          C       0.72890   0.80313   0.37494   0.04925
C          C       0.74624   0.83536   0.45743  -0.07129
C          C       0.83827   0.80458   0.33882   0.06878
C          C       0.86272   0.86111   0.50728  -0.24116
C          C       0.59160   0.73721   0.24988  -0.12266
C          C       0.70612   0.73571   0.21928   0.07248
C          C       0.62882   0.13584   0.42958   0.04998
C          C       0.49781   0.08686   0.39535   0.03315
C          C       0.66079   0.16133   0.51202  -0.07125
C          C       0.76792   0.23011   0.56024  -0.24461
C          C       0.54002   0.06917   0.27431   0.08299
C          C       0.67358   0.11213   0.30327  -0.12431
C          C       0.71889   0.14818   0.38136  -0.06676
C          C       0.89969   0.88323   0.09130   0.60263
C          C       0.23303   0.78792   0.14080   0.61482
C          C       0.77165   0.60810   0.82964  -0.08139
C          C       0.80573   0.73737   0.87515   0.05095
C          C       0.83873   0.75669   0.95756  -0.07544
C          C       0.80491   0.84617   0.83812   0.06326
C          C       0.86539   0.87469   0.00794  -0.23863
C          C       0.73633   0.59333   0.75116  -0.12026
C          C       0.73158   0.70749   0.71970   0.06705
C          C       0.13392   0.62680   0.92696   0.05794
C          C       0.08481   0.49344   0.89385   0.02411
C          C       0.15988   0.66139   0.00962  -0.07526
C          C       0.23535   0.76550   0.05791  -0.23814
C          C       0.06609   0.53052   0.77184   0.07923
C          C       0.11073   0.66571   0.79978  -0.12342
C          C       0.14653   0.71525   0.87773  -0.06758
C          C       0.11483   0.10980   0.40819   0.59455
C          C       0.20084   0.77068   0.36361   0.62056
C          C       0.38570   0.22906   0.67127  -0.08382
C          C       0.25934   0.20049   0.62460   0.05126
C          C       0.24215   0.17300   0.54207  -0.07798
C          C       0.14991   0.19777   0.66060   0.06197
C          C       0.12604   0.14175   0.49222  -0.23699
C          C       0.39698   0.25276   0.74985  -0.12152
C          C       0.28269   0.24973   0.78045   0.07832
C          C       0.36130   0.86693   0.57658   0.05526
C          C       0.49383   0.91199   0.60904   0.02312
C          C       0.32724   0.84073   0.49407  -0.07393
C          C       0.22104   0.76956   0.44628  -0.24074
C          C       0.45591   0.93439   0.73144   0.08130
C          C       0.32104   0.89581   0.70419  -0.12350
C          C       0.27284   0.85942   0.62631  -0.07003
N          N       0.23168   0.16783   0.23416  -0.23570
N          N       0.94141   0.54323   0.18255  -0.22474
N          N       0.82800   0.76891   0.26364  -0.22885
N          N       0.45301   0.05712   0.32015  -0.22511
N          N       0.76524   0.83208   0.76309  -0.20794
N          N       0.05390   0.44528   0.81882  -0.20470
N          N       0.16043   0.22313   0.73599  -0.22477
N          N       0.54120   0.94199   0.68402  -0.20466
O          O       0.07437   0.21678   0.88368  -0.56177
O          O       0.82257   0.29509   0.83536  -0.55971
O          O       0.17652   0.02209   0.86330  -0.54190
O          O       0.69733   0.09653   0.81996  -0.54984
O          O       0.76420   0.90278   0.61585  -0.56975
O          O       0.69747   0.16672   0.66646  -0.56338
O          O       0.98867   0.92580   0.63156  -0.52914
O          O       0.89772   0.28714   0.68261  -0.55304
O          O       0.90230   0.77226   0.11483  -0.57824
O          O       0.16611   0.70198   0.16457  -0.57071
O          O       0.92563  -0.00007   0.13328  -0.53205
O          O       0.29726   0.89730   0.18076  -0.56379
O          O       0.22548   0.10260   0.38395  -0.57658
O          O       0.28809   0.83442   0.33938  -0.57487
O          O       0.00032   0.09124   0.36796  -0.48500
O          O       0.09155   0.70827   0.32379  -0.56477
O          O       0.91983   0.06341   0.75488  -0.75143
O          O       0.06852   0.93164   0.24735  -0.70784

