data_crystal

_audit_creation_method 'AiiDA-DDEC plugin'

_cell_length_a         8.85351
_cell_length_b        12.51065
_cell_length_c        24.16244

_cell_angle_alpha     90.10472
_cell_angle_beta     89.99104
_cell_angle_gamma     110.70076

_symmetry_space_group_name_Hall 'P 1'
_symmetry_space_group_name_H-M  'P 1'

loop_
_symmetry_equiv_pos_as_xyz
 'x,y,z'

loop_
_atom_site_label
_atom_site_type_symbol
_atom_site_fract_x
_atom_site_fract_y
_atom_site_fract_z
_atom_site_charge
Fe         Fe      0.49999   0.49997   0.49884   0.70052
Fe         Fe      0.00006   0.49999  -0.00105   0.69968
H          H       0.85278   0.59097   0.54551   0.08585
H          H       0.02609   0.73241   0.61197   0.13641
H          H       0.60225   0.80746   0.65962   0.12757
H          H       0.44908   0.66553   0.58954   0.09779
H          H       0.81795   0.97774   0.68592   0.08665
H          H       0.76562   0.86885   0.73841   0.08581
H          H       0.14904   0.40762   0.54595   0.08567
H          H       0.97748   0.26630   0.61256   0.13717
H          H       0.40312   0.19278   0.65922   0.12846
H          H       0.55456   0.33460   0.58910   0.09304
H          H       0.18790   0.02206   0.68585   0.08951
H          H       0.24036   0.13120   0.73843   0.08322
H          H       0.74120   0.59185   0.95144   0.08525
H          H       0.71096   0.73312   0.88479   0.13666
H          H       0.21085   0.80787   0.83881   0.12833
H          H       0.22044   0.66609   0.90896   0.09284
H          H       0.16580   0.97805   0.81182   0.08611
H          H       0.10947   0.86886   0.75927   0.08653
H          H       0.26164   0.40931   0.95192   0.08596
H          H       0.29358   0.26798   0.88536   0.13702
H          H       0.79404   0.19182   0.83843   0.12768
H          H       0.78275   0.33365   0.90858   0.09295
H          H       0.84008   0.02206   0.81175   0.08603
H          H       0.89628   0.13096   0.75927   0.08620
H          H       0.14719   0.40894   0.45220   0.08576
H          H       0.97386   0.26754   0.38573   0.13623
H          H       0.39770   0.19256   0.33801   0.12775
H          H       0.55090   0.33443   0.40811   0.09794
H          H       0.18189   0.02220   0.31182   0.08610
H          H       0.23433   0.13098   0.25928   0.08585
H          H       0.85084   0.59213   0.45166   0.08552
H          H       0.02239   0.73345   0.38505   0.13728
H          H       0.59685   0.80723   0.33853   0.12825
H          H       0.44543   0.66540   0.40865   0.09308
H          H       0.81207   0.97790   0.31188   0.08638
H          H       0.75947   0.86880   0.25929   0.08597
H          H       0.25826   0.40682   0.04571   0.08508
H          H       0.28831   0.26533   0.11225   0.13690
H          H       0.79000   0.19336   0.15953   0.12806
H          H       0.78051   0.33534   0.08945   0.09334
H          H       0.83400   0.02196   0.18594   0.08914
H          H       0.89086   0.13125   0.23844   0.08608
H          H       0.73914   0.59190   0.04519   0.08621
H          H       0.70727   0.73340   0.11163   0.13703
H          H       0.20515   0.80678   0.15996   0.12794
H          H       0.21648   0.66482   0.08987   0.09374
H          H       0.16009   0.97769   0.18609   0.08916
H          H       0.10313   0.86871   0.23853   0.08582
C          C       0.80144   0.64041   0.57152   0.10139
C          C       0.89798   0.71852   0.60916  -0.25082
C          C       0.82812   0.78072   0.64215   0.28315
C          C       0.66342   0.76161   0.63556  -0.28410
C          C       0.57671   0.68160   0.59631   0.10785
C          C       0.86363   0.92450   0.71237  -0.03936
C          C       0.20118   0.35851   0.57176   0.10192
C          C       0.10561   0.28046   0.60947  -0.25297
C          C       0.17651   0.21874   0.64223   0.28520
C          C       0.34121   0.23825   0.63534  -0.28562
C          C       0.42693   0.31823   0.59606   0.11172
C          C       0.14226   0.07536   0.71239  -0.03842
C          C       0.84261   0.64121   0.92577   0.10160
C          C       0.82511   0.71924   0.88803  -0.25150
C          C       0.95791   0.78129   0.85545   0.28330
C          C       0.10330   0.76212   0.86253  -0.28415
C          C       0.10902   0.68216   0.90184   0.11146
C          C       0.06701   0.92468   0.78528  -0.03876
C          C       0.16073   0.35964   0.92605   0.10097
C          C       0.17920   0.28160   0.88835  -0.25162
C          C       0.04698   0.21913   0.85553   0.28461
C          C       0.90118   0.23790   0.86235  -0.28512
C          C       0.89447   0.31786   0.90163   0.11142
C          C       0.93886   0.07538   0.78528  -0.03869
C          C       0.19854   0.35953   0.42617   0.10114
C          C       0.10198   0.28145   0.38852  -0.25040
C          C       0.17183   0.21927   0.35550   0.28303
C          C       0.33654   0.23839   0.36209  -0.28393
C          C       0.42326   0.31838   0.40134   0.10745
C          C       0.13628   0.07542   0.28533  -0.03877
C          C       0.79871   0.64128   0.42587   0.10232
C          C       0.89427   0.71934   0.38816  -0.25317
C          C       0.82339   0.78113   0.35544   0.28523
C          C       0.65872   0.76168   0.36237  -0.28543
C          C       0.57302   0.68170   0.40165   0.11177
C          C       0.85763   0.92459   0.28532  -0.03842
C          C       0.15715   0.35804   0.07165   0.10255
C          C       0.17457   0.27987   0.10932  -0.25216
C          C       0.04215   0.21855   0.14223   0.28353
C          C       0.89722   0.23853   0.13553  -0.28332
C          C       0.89156   0.31860   0.09628   0.11017
C          C       0.93299   0.07526   0.21243  -0.04112
C          C       0.83971   0.64099   0.07134   0.10119
C          C       0.82126   0.71913   0.10898  -0.25224
C          C       0.95303   0.78086   0.14216   0.28503
C          C       0.09838   0.76129   0.13575  -0.28522
C          C       0.10511   0.68126   0.09651   0.11094
C          C       0.06100   0.92446   0.21247  -0.04130
C          C       0.72954   0.35248   0.49875   0.24718
C          C       0.27030   0.64737   0.49891   0.24710
C          C       0.62301   0.35283   0.99879   0.24871
C          C       0.37708   0.64714  -0.00108   0.24923
C          C       0.00303  -0.00002   0.74882   0.06102
C          C      -0.00311  -0.00006   0.24889   0.06096
S          S       0.80964   0.25499   0.49963  -0.31524
S          S       0.19003   0.74477   0.49799  -0.31506
S          S       0.44542   0.25544  -0.00061  -0.31521
S          S       0.55460   0.74460   0.99792  -0.31532
N          N       0.64216   0.62087   0.56433  -0.24846
N          N       0.36047   0.37850   0.56431  -0.24884
N          N       0.98210   0.62155   0.93342  -0.24835
N          N       0.02082   0.37888   0.93345  -0.24758
N          N       0.35782   0.37908   0.43334  -0.24849
N          N       0.63946   0.62137   0.43337  -0.24923
N          N       0.01812   0.37850   0.06438  -0.24839
N          N       0.97919   0.62096   0.06435  -0.24796
N          N       0.66995   0.42487   0.49809  -0.50157
N          N       0.33003   0.57506   0.49961  -0.50162
N          N       0.75500   0.42514   0.99829  -0.50226
N          N       0.24514   0.57478  -0.00037  -0.50291
O          O       0.92896   0.85641   0.67857  -0.19517
O          O       0.07647   0.14316   0.67872  -0.19572
O          O       0.93344   0.85685   0.81893  -0.19532
O          O       0.07220   0.14355   0.81904  -0.19539
O          O       0.07101   0.14361   0.31908  -0.19477
O          O       0.92340   0.85673   0.31895  -0.19546
O          O       0.06651   0.14285   0.17869  -0.19574
O          O       0.92781   0.85655   0.17858  -0.19597

