data_crystal

_audit_creation_method 'AiiDA-DDEC plugin'

_cell_length_a         4.47883
_cell_length_b        18.90050
_cell_length_c        18.90683

_cell_angle_alpha     89.19602
_cell_angle_beta     83.03554
_cell_angle_gamma     83.39838

_symmetry_space_group_name_Hall 'P 1'
_symmetry_space_group_name_H-M  'P 1'

loop_
_symmetry_equiv_pos_as_xyz
 'x,y,z'

loop_
_atom_site_label
_atom_site_type_symbol
_atom_site_fract_x
_atom_site_fract_y
_atom_site_fract_z
_atom_site_charge
Zn         Zn      0.12843   0.52404   0.94881   0.87520
Zn         Zn      0.59812   0.47562   0.04830   0.87598
Zn         Zn      0.32617   0.04847   0.52411   0.87719
Zn         Zn      0.89767   0.94903   0.47561   0.87701
H          H       0.84677   0.61940   0.83008   0.12178
H          H       0.48797   0.63454   0.02677   0.14580
H          H       0.88877   0.68938   0.07601   0.11506
H          H       0.20527   0.78782   0.07897   0.09843
H          H       0.15457   0.88834   0.99286   0.10012
H          H       0.77107   0.89419   0.90903   0.10959
H          H       0.37084   0.84011   0.85666   0.12306
H          H       0.60955   0.82999   0.65738   0.10529
H          H       0.49632   0.72024   0.60064   0.12280
H          H       0.50871   0.67941   0.72540   0.12910
H          H       0.62518   0.79100   0.78136   0.10081
H          H       0.68582   0.48200   0.91712   0.36114
H          H       0.29099   0.38088   0.16876   0.12149
H          H       0.14624   0.36473   0.97133   0.14598
H          H       0.65057   0.30980   0.92215   0.11438
H          H       0.06761   0.21195   0.92010   0.09822
H          H       0.02904   0.11217   0.00714   0.09942
H          H       0.56635   0.10671   0.09155   0.11052
H          H       0.06002   0.16091   0.14373   0.12236
H          H       0.09842   0.16867   0.34341   0.10550
H          H       0.82465   0.27873   0.39725   0.12307
H          H       0.91253   0.32071   0.27277   0.12879
H          H       0.19006   0.20882   0.21967   0.10126
H          H       0.08278   0.51762   0.08004   0.36076
H          H       0.51659   0.16838   0.61872   0.12230
H          H       0.85666   0.97142   0.63517   0.14562
H          H       0.39986   0.92223   0.69035   0.11471
H          H       0.98315   0.92024   0.78844   0.09791
H          H       0.93353   0.00726   0.88823   0.09920
H          H       0.31276   0.09137   0.89359   0.11048
H          H       0.76870   0.14335   0.83932   0.12213
H          H       0.54244   0.34245   0.82917   0.10491
H          H       0.76587   0.39801   0.71936   0.12320
H          H       0.79487   0.27335   0.67831   0.12910
H          H       0.56628   0.21855   0.79005   0.10064
H          H       0.80945   0.08008   0.48267   0.35889
H          H       0.30025   0.83006   0.37988   0.12145
H          H       0.46402   0.02693   0.36503   0.14580
H          H       0.01534   0.07631   0.31032   0.11400
H          H       0.69751   0.07930   0.21204   0.09808
H          H       0.83566   0.99334   0.11141   0.09998
H          H       0.30249   0.90930   0.10543   0.11022
H          H       0.75368   0.85684   0.15940   0.12282
H          H       0.71047   0.65751   0.16822   0.10447
H          H       0.87593   0.60136   0.27774   0.12288
H          H       0.74183   0.72580   0.31947   0.12899
H          H       0.57408   0.78119   0.20804   0.10098
H          H       0.36903   0.91749   0.51712   0.36086
C          C       0.98044   0.65000   0.85970   0.14313
C          C       0.29134   0.67584   0.93360   0.14496
C          C       0.47679   0.67707   0.98746  -0.17280
C          C       0.64786   0.73422   0.99134   0.04890
C          C       0.85895   0.73471   0.04067  -0.15664
C          C       0.03576   0.78961   0.04235  -0.09259
C          C       0.00613   0.84671   0.99329  -0.06617
C          C       0.79226   0.84982   0.94593  -0.18665
C          C       0.61217   0.79434   0.94220   0.06018
C          C       0.40781   0.79393   0.89075  -0.19443
C          C       0.26918   0.73295   0.88333   0.07938
C          C       0.80995   0.79819   0.67209  -0.06221
C          C       0.05400   0.77843   0.62046  -0.06974
C          C       0.30155   0.73504   0.63997  -0.07000
C          C       0.31572   0.71472   0.71147  -0.12610
C          C       0.07365   0.73777   0.76312   0.12023
C          C       0.82174   0.77840   0.74284  -0.15969
C          C       0.04427   0.81200   0.54819   0.54526
C          C       0.48490   0.35021   0.13928   0.14255
C          C       0.89591   0.32421   0.06517   0.14399
C          C       0.13697   0.32259   0.01108  -0.17183
C          C       0.36847   0.26565   0.00764   0.04929
C          C       0.62983   0.26487   0.95806  -0.15792
C          C       0.86274   0.21026   0.95688  -0.09156
C          C       0.83994   0.15358   0.00650  -0.06464
C          C       0.58134   0.15072   0.05415  -0.18739
C          C       0.34286   0.20602   0.05749   0.05869
C          C       0.08626   0.20679   0.10916  -0.19552
C          C       0.87969   0.26758   0.11603   0.08018
C          C       0.28309   0.20030   0.32798  -0.06128
C          C       0.46002   0.21942   0.37877  -0.07004
C          C       0.68168   0.26376   0.35863  -0.06961
C          C       0.74031   0.28530   0.28725  -0.12696
C          C       0.56939   0.26267   0.23631   0.12077
C          C       0.33888   0.22136   0.25735  -0.15861
C          C       0.41464   0.18527   0.45094   0.54374
C          C       0.35135   0.13895   0.64949   0.14264
C          C       0.01312   0.06505   0.67577   0.14460
C          C       0.82566   0.01104   0.67742  -0.17195
C          C       0.59659   0.00758   0.73446   0.04909
C          C       0.38426   0.95811   0.73531  -0.15649
C          C       0.15151   0.95696   0.79004  -0.09253
C          C       0.12411   0.00654   0.84673  -0.06405
C          C       0.33570   0.05404   0.84954  -0.18821
C          C       0.57202   0.05733   0.79415   0.05892
C          C       0.77772   0.10887   0.79339  -0.19354
C          C       0.97825   0.11584   0.73244   0.07947
C          C       0.37321   0.32746   0.79754  -0.06191
C          C       0.14871   0.37877   0.77801  -0.06851
C          C       0.94552   0.35897   0.73428  -0.07083
C          C       0.95256   0.28749   0.71366  -0.12624
C          C       0.17112   0.23610   0.73674   0.11973
C          C       0.38213   0.25674   0.77747  -0.15783
C          C       0.12439   0.45095   0.81192   0.54161
C          C       0.13773   0.85974   0.34934   0.14215
C          C       0.75397   0.93375   0.32367   0.14438
C          C       0.51507   0.98765   0.32247  -0.17301
C          C       0.34117   0.99158   0.26538   0.04932
C          C       0.08114   0.04098   0.26497  -0.15560
C          C       0.90359   0.04268   0.21014  -0.09297
C          C       0.98297   0.99367   0.15298  -0.06465
C          C       0.24382   0.94622   0.14981  -0.18829
C          C       0.42657   0.94243   0.20524   0.05931
C          C       0.68192   0.89093   0.20561  -0.19526
C          C       0.82695   0.88350   0.26652   0.08125
C          C       0.49438   0.67234   0.19990  -0.06023
C          C       0.29987   0.62094   0.21915  -0.06902
C          C       0.03276   0.64049   0.26299  -0.07011
C          C       0.94933   0.71184   0.28403  -0.12659
C          C       0.14156   0.76334   0.26128   0.11994
C          C       0.41416   0.74295   0.22040  -0.15951
C          C       0.38094   0.54883   0.18515   0.54041
N          N       0.10469   0.62643   0.91754  -0.31636
N          N       0.07658   0.71370   0.83606  -0.04650
N          N       0.64408   0.37347   0.08103  -0.31551
N          N       0.62037   0.28687   0.16333  -0.04649
N          N       0.25001   0.08080   0.62634  -0.31679
N          N       0.19109   0.16307   0.71292  -0.04694
N          N       0.95572   0.91761   0.37301  -0.31603
N          N       0.06616   0.83618   0.28564  -0.04660
O          O       0.98634   0.88158   0.55194  -0.62379
O          O       0.26332   0.77844   0.49269  -0.22644
O          O       0.59528   0.51829   0.95223  -0.84332
O          O       0.91129   0.77306   0.49683  -0.23417
O          O       0.42770   0.11570   0.44710  -0.62249
O          O       0.54821   0.21856   0.50606  -0.22738
O          O       0.06409   0.48137   0.04483  -0.84449
O          O       0.19433   0.22403   0.50308  -0.23413
O          O       0.11536   0.44694   0.88145  -0.62282
O          O       0.93689   0.50617   0.77874  -0.22692
O          O       0.86879   0.04485   0.51841  -0.84452
O          O       0.29403   0.50295   0.77297  -0.23430
O          O       0.44057   0.55274   0.11566  -0.62212
O          O       0.21234   0.49365   0.21826  -0.22732
O          O       0.43073   0.95268   0.48134  -0.84568
O          O       0.56021   0.49685   0.22426  -0.23294

