data_crystal

_audit_creation_method 'AiiDA-DDEC plugin'

_cell_length_a         7.66626
_cell_length_b        14.22677
_cell_length_c        20.72415

_cell_angle_alpha     90.00101
_cell_angle_beta     90.00000
_cell_angle_gamma     105.59063

_symmetry_space_group_name_Hall 'P 1'
_symmetry_space_group_name_H-M  'P 1'

loop_
_symmetry_equiv_pos_as_xyz
 'x,y,z'

loop_
_atom_site_label
_atom_site_type_symbol
_atom_site_fract_x
_atom_site_fract_y
_atom_site_fract_z
_atom_site_charge
Cd         Cd      0.24996   0.50000   0.25021   1.05695
Cd         Cd      0.75005   0.50000   0.74979   1.05695
Cd         Cd      0.75003   0.50001   0.95560   1.12511
Cd         Cd      0.75002   0.50000   0.54475   1.12529
Cd         Cd      0.24998   0.49999   0.04440   1.12520
Cd         Cd      0.24999   0.50000   0.45525   1.12527
H          H       0.46387   0.18204   0.99184   0.12472
H          H       0.07006   0.17543   0.18356   0.12655
H          H       0.06120   0.02089   0.12539   0.12199
H          H       0.03616   0.81797   0.99184   0.12471
H          H       0.42996   0.82459   0.18356   0.12674
H          H       0.43883   0.97913   0.12539   0.12207
H          H       0.71911   0.18219   0.50835   0.12446
H          H       0.10478   0.17515   0.31627   0.12680
H          H       0.95927   0.02068   0.37447   0.12213
H          H       0.78091   0.81781   0.50835   0.12454
H          H       0.39522   0.82483   0.31627   0.12666
H          H       0.54073   0.97931   0.37447   0.12215
H          H       0.53614   0.81796   0.00816   0.12457
H          H       0.92996   0.82457   0.81644   0.12671
H          H       0.93881   0.97911   0.87461   0.12229
H          H       0.96385   0.18203   0.00816   0.12469
H          H       0.57005   0.17541   0.81644   0.12664
H          H       0.56119   0.02087   0.87461   0.12198
H          H       0.28090   0.81781   0.49165   0.12455
H          H       0.89524   0.82485   0.68373   0.12665
H          H       0.04074   0.97932   0.62553   0.12212
H          H       0.21910   0.18219   0.49165   0.12457
H          H       0.60479   0.17517   0.68372   0.12671
H          H       0.45928   0.02069   0.62553   0.12215
C          C       0.26422   0.09138   0.05542  -0.01170
C          C       0.38005   0.17987   0.03447  -0.09288
C          C       0.39094   0.26628   0.06836  -0.02492
C          C       0.27769   0.26430   0.12252   0.01768
C          C       0.15879   0.17556   0.14255  -0.10546
C          C       0.15396   0.08944   0.11013  -0.08831
C          C       0.51585   0.35943   0.04418   0.58039
C          C       0.27108   0.35314   0.16008   0.55430
C          C       0.23581   0.90863   0.05542  -0.01185
C          C       0.11998   0.82014   0.03448  -0.09289
C          C       0.10907   0.73374   0.06836  -0.02484
C          C       0.22233   0.73572   0.12252   0.01777
C          C       0.34122   0.82446   0.14255  -0.10601
C          C       0.34606   0.91057   0.11013  -0.08786
C          C       0.98417   0.64059   0.04418   0.58044
C          C       0.22892   0.64687   0.16008   0.55426
C          C       0.82734   0.09135   0.44459  -0.01049
C          C       0.80039   0.17992   0.46563  -0.09195
C          C       0.87576   0.26630   0.43172  -0.02872
C          C       0.98651   0.26418   0.37744   0.01773
C          C       0.01647   0.17538   0.35735  -0.10459
C          C       0.93529   0.08929   0.38980  -0.08897
C          C       0.84418   0.35952   0.45594   0.58323
C          C       0.08142   0.35299   0.33980   0.55318
C          C       0.67267   0.90865   0.44459  -0.01044
C          C       0.69961   0.82007   0.46563  -0.09174
C          C       0.62425   0.73369   0.43172  -0.02891
C          C       0.51349   0.73581   0.37745   0.01800
C          C       0.48353   0.82461   0.35736  -0.10474
C          C       0.56471   0.91069   0.38980  -0.08909
C          C       0.65582   0.64047   0.45594   0.58343
C          C       0.41857   0.64699   0.33980   0.55307
C          C       0.73579   0.90861   0.94458  -0.01185
C          C       0.61996   0.82013   0.96553  -0.09287
C          C       0.60906   0.73372   0.93164  -0.02496
C          C       0.72232   0.73570   0.87748   0.01760
C          C       0.84122   0.82444   0.85745  -0.10532
C          C       0.84605   0.91056   0.88987  -0.08837
C          C       0.48416   0.64057   0.95581   0.58068
C          C       0.72892   0.64685   0.83992   0.55433
C          C       0.76421   0.09137   0.94458  -0.01180
C          C       0.88004   0.17986   0.96552  -0.09293
C          C       0.89093   0.26626   0.93164  -0.02478
C          C       0.77769   0.26428   0.87748   0.01789
C          C       0.65879   0.17554   0.85745  -0.10585
C          C       0.65395   0.08943   0.88987  -0.08808
C          C       0.01584   0.35941   0.95581   0.58028
C          C       0.77108   0.35313   0.83992   0.55399
C          C       0.17267   0.90866   0.55541  -0.01030
C          C       0.19962   0.82008   0.53437  -0.09180
C          C       0.12425   0.73371   0.56828  -0.02869
C          C       0.01350   0.73582   0.62256   0.01777
C          C       0.98354   0.82462   0.64264  -0.10470
C          C       0.06472   0.91071   0.61020  -0.08915
C          C       0.15583   0.64048   0.54406   0.58310
C          C       0.91859   0.64701   0.66020   0.55322
C          C       0.32734   0.09136   0.55541  -0.01040
C          C       0.30040   0.17993   0.53437  -0.09179
C          C       0.37576   0.26631   0.56828  -0.02892
C          C       0.48653   0.26420   0.62255   0.01798
C          C       0.51648   0.17539   0.64264  -0.10466
C          C       0.43530   0.08931   0.61020  -0.08922
C          C       0.34419   0.35953   0.54406   0.58345
C          C       0.58144   0.35301   0.66019   0.55286
C          C       0.25001   0.00000   0.01828   0.35378
C          C       0.75000  -0.00000   0.48171   0.35350
C          C       0.74999  -0.00001   0.98171   0.35393
C          C       0.25000   0.00000   0.51828   0.35339
O          O       0.63478   0.35228   0.00276  -0.51163
O          O       0.50028   0.44153   0.06369  -0.54379
O          O       0.15878   0.39976   0.14195  -0.50290
O          O       0.36380   0.37340   0.21119  -0.46285
O          O       0.86525   0.64773   0.00275  -0.51184
O          O      -0.00028   0.55849   0.06369  -0.54384
O          O       0.34123   0.60026   0.14195  -0.50257
O          O       0.13620   0.62661   0.21119  -0.46300
O          O       0.71882   0.35239   0.49763  -0.51340
O          O       0.94115   0.44160   0.43623  -0.54394
O          O       0.24061   0.39948   0.35770  -0.50315
O          O       0.00829   0.37339   0.28888  -0.46170
O          O       0.78119   0.64760   0.49763  -0.51322
O          O       0.55885   0.55839   0.43623  -0.54412
O          O       0.25938   0.60050   0.35770  -0.50340
O          O       0.49170   0.62660   0.28888  -0.46152
O          O       0.36523   0.64771   0.99724  -0.51200
O          O       0.49973   0.55847   0.93631  -0.54388
O          O       0.84123   0.60024   0.85804  -0.50269
O          O       0.63621   0.62660   0.78881  -0.46296
O          O       0.13475   0.35227   0.99725  -0.51167
O          O       0.00029   0.44151   0.93631  -0.54360
O          O       0.65877   0.39974   0.85804  -0.50275
O          O       0.86381   0.37339   0.78881  -0.46260
O          O       0.28119   0.64761   0.50237  -0.51306
O          O       0.05886   0.55840   0.56377  -0.54409
O          O       0.75940   0.60052   0.64230  -0.50339
O          O       0.99172   0.62661   0.71112  -0.46162
O          O       0.21882   0.35240   0.50237  -0.51339
O          O       0.44116   0.44161   0.56377  -0.54406
O          O       0.74062   0.39950   0.64230  -0.50298
O          O       0.50831   0.37341   0.71112  -0.46177
O          O       0.25001   0.00000   0.95857  -0.36915
O          O       0.75001  -0.00000   0.54142  -0.36928
O          O       0.75000  -0.00000   0.04142  -0.36935
O          O       0.25000   0.00000   0.45858  -0.36915

