data_crystal

_audit_creation_method 'AiiDA-DDEC plugin'

_cell_length_a        11.95218
_cell_length_b         9.33952
_cell_length_c        19.52824

_cell_angle_alpha     104.57766
_cell_angle_beta     87.06482
_cell_angle_gamma     134.32895

_symmetry_space_group_name_Hall 'P 1'
_symmetry_space_group_name_H-M  'P 1'

loop_
_symmetry_equiv_pos_as_xyz
 'x,y,z'

loop_
_atom_site_label
_atom_site_type_symbol
_atom_site_fract_x
_atom_site_fract_y
_atom_site_fract_z
_atom_site_charge
Cd         Cd      0.36458   0.65709   0.95806   1.00141
Cd         Cd      0.65723   0.28731   0.02763   1.00823
Cd         Cd      0.42746   0.00271   0.50319   1.05528
H          H       0.02771   0.74295   0.65186   0.16080
H          H       0.41172   0.83916   0.73284   0.12942
H          H       0.09785   0.77723   0.87207   0.12952
H          H       0.01605   0.94417   0.86940   0.04435
H          H       0.96962   0.31169   0.85150   0.12842
H          H       0.85936   0.24211   0.62930   0.16138
H          H       0.60258   0.26076   0.78771   0.12604
H          H       0.34875   0.34805   0.74120   0.15636
H          H       0.17021   0.13706   0.67669   0.15413
H          H       0.29701   0.40018   0.67397   0.17145
H          H       0.23847   0.49790   0.78872   0.07248
H          H       0.76481   0.87046   0.87199   0.16442
H          H       0.67293   0.65534   0.79143   0.17046
H          H       0.72904   0.65095   0.87344   0.17107
H          H       0.27002   0.21983   0.37722   0.16288
H          H       0.57201   0.18116   0.26430   0.12840
H          H       0.26874   0.17409   0.15085   0.12893
H          H       0.16985   0.29115   0.18088   0.04681
H          H       0.65301   0.71252   0.13206   0.13367
H          H       0.62970   0.80997   0.35964   0.16017
H          H       0.31532   0.71867   0.21163   0.13141
H          H       0.93339   0.59813   0.21026   0.15567
H          H       0.02820   0.83525   0.28012   0.14458
H          H       0.84663   0.59040   0.28800   0.16442
H          H       0.69895   0.53888   0.18712   0.06190
H          H       0.91897   0.20977   0.18056   0.16943
H          H       0.89487   0.14379   0.26228   0.15954
H          H       0.06494   0.40362   0.26066   0.17255
C          C       0.33694   0.80897   0.86807   0.54169
C          C       0.28404   0.81798   0.61555   0.53636
C          C       0.10399   0.21121   0.81268   0.52310
C          C       0.09527   0.76554   0.69608  -0.18258
C          C       0.31384   0.82369   0.74268  -0.09920
C          C       0.07037   0.75362   0.01517   0.72977
C          C       0.74235   0.28647   0.89984   0.54664
C          C       0.13658   0.78854   0.82059  -0.18927
C          C       0.26788   0.81877   0.81013  -0.00896
C          C       0.92806   0.27500   0.73713   0.26880
C          C       0.78119   0.28157   0.82600   0.00295
C          C       0.05080   0.76021   0.76351   0.24530
C          C       0.92284   0.85620   0.82259   0.38452
C          C       0.72358   0.25331   0.70293   0.00242
C          C       0.90163   0.29252   0.80877  -0.19967
C          C       0.83823   0.25541   0.68436  -0.17364
C          C       0.63607   0.25094   0.64959   0.54220
C          C       0.69325   0.26403   0.77361  -0.07991
C          C       0.24911   0.30146   0.70952  -0.41901
C          C       0.22923   0.80155   0.68629   0.01655
C          C       0.15941   0.33207   0.75856   0.06690
C          C       0.76173   0.75187   0.84091  -0.48378
C          C       0.49500   0.18319   0.13465   0.55114
C          C       0.48344   0.20222   0.39416   0.53828
C          C       0.88230   0.78278   0.14917   0.52909
C          C       0.31497   0.21052   0.32818  -0.18275
C          C       0.48424   0.18685   0.26409  -0.10433
C          C       0.29099   0.23175   0.99700   0.71686
C          C       0.42888   0.68378   0.09066   0.54154
C          C       0.31178   0.18322   0.20093  -0.21692
C          C       0.42692   0.17896   0.20121  -0.00446
C          C       0.65728   0.76423   0.24820   0.24940
C          C       0.48001   0.71159   0.16498   0.00225
C          C       0.25539   0.19677   0.26442   0.25280
C          C       0.07410   0.18409   0.20822   0.38959
C          C       0.46155   0.75874   0.29151  -0.00481
C          C       0.60191   0.72562   0.17775  -0.21144
C          C       0.58652   0.77960   0.30505  -0.17799
C          C       0.38378   0.77046   0.35235   0.54012
C          C       0.40929   0.72818   0.22168  -0.11129
C          C       0.91339   0.68108   0.25031  -0.42015
C          C       0.42738   0.20275   0.32759   0.01263
C          C       0.81494   0.69733   0.21303   0.07777
C          C       0.98076   0.23646   0.22915  -0.49438
O          O       0.43857   0.80018   0.85712  -0.54443
O          O       0.17624   0.29420   0.87543  -0.50333
O          O       0.12021   0.73807   0.05975  -0.33093
O          O       0.37179   0.78916   0.59992  -0.45805
O          O       0.80903   0.28189   0.94733  -0.55641
O          O       0.27593   0.78289   0.92560  -0.56190
O          O       0.65313   0.21875   0.58364  -0.52002
O          O       0.55137   0.28113   0.67172  -0.44445
O          O       0.91078   0.70762   0.77144  -0.22897
O          O       0.03205   0.26688   0.71136  -0.16329
O          O       0.24297   0.86887   0.57474  -0.50929
O          O       0.97489   0.00790   0.78386  -0.25681
O          O       0.64038   0.29417   0.91333  -0.52881
O          O       0.01919   0.76963   0.97098  -0.37034
O          O       0.60136   0.18157   0.13244  -0.54559
O          O       0.84061   0.65388   0.09034  -0.50261
O          O       0.35891   0.23492   0.95083  -0.34201
O          O       0.60889   0.24475   0.39911  -0.43356
O          O       0.51002   0.69324   0.04184  -0.55582
O          O       0.45470   0.20893   0.08280  -0.56492
O          O       0.44810   0.82026   0.41596  -0.52085
O          O       0.26223   0.73322   0.33924  -0.45500
O          O       0.13479   0.18797   0.26907  -0.21889
O          O       0.78684   0.80143   0.26685  -0.18776
O          O       0.39551   0.15017   0.44299  -0.50913
O          O       0.98102   0.98111   0.14877  -0.27701
O          O       0.30925   0.65109   0.07663  -0.52069
O          O       0.21951   0.22668   0.04178  -0.35884

