data_crystal

_audit_creation_method 'AiiDA-DDEC plugin'

_cell_length_a         4.50902
_cell_length_b         9.55699
_cell_length_c        24.36763

_cell_angle_alpha     90.14629
_cell_angle_beta     90.08100
_cell_angle_gamma     82.52521

_symmetry_space_group_name_Hall 'P 1'
_symmetry_space_group_name_H-M  'P 1'

loop_
_symmetry_equiv_pos_as_xyz
 'x,y,z'

loop_
_atom_site_label
_atom_site_type_symbol
_atom_site_fract_x
_atom_site_fract_y
_atom_site_fract_z
_atom_site_charge
Cu         Cu      0.66787   0.07198   0.82646   0.86207
Cu         Cu      0.33526   0.40104   0.32499   0.86225
Cu         Cu      0.32732   0.90326   0.17352   0.86321
Cu         Cu      0.67251   0.56895   0.67459   0.86219
H          H       0.50136   0.98972   0.70883   0.12928
H          H       0.74161   0.03114   0.61715   0.09706
H          H       0.32661   0.26755   0.90259   0.10880
H          H       0.72886   0.85462   0.91232   0.10486
H          H       0.55049   0.68368   0.98259   0.11302
H          H       0.84567   0.35068   0.95426   0.12192
H          H       0.49787   0.48354   0.20718   0.12894
H          H       0.25518   0.44151   0.11559   0.09690
H          H       0.67805   0.20635   0.40071   0.10934
H          H       0.27229   0.61854   0.41201   0.10529
H          H       0.44717   0.78826   0.48377   0.11328
H          H       0.16012   0.12344   0.45205   0.12277
H          H       0.50109   0.98194   0.29139   0.12862
H          H       0.26526   0.93780   0.38319   0.09705
H          H       0.66875   0.70798   0.09727   0.10927
H          H       0.26689   0.12097   0.08760   0.10501
H          H       0.44497   0.29186   0.01728   0.11305
H          H       0.14953   0.62479   0.04552   0.12158
H          H       0.49994   0.49054   0.79257   0.12914
H          H       0.73600   0.53536   0.88443   0.09741
H          H       0.32890   0.76356   0.59885   0.10930
H          H       0.73429   0.35131   0.58757   0.10588
H          H       0.55969   0.18167   0.51579   0.11378
H          H       0.84680   0.84651   0.54747   0.12218
C          C       0.04859   0.26699   0.80157   0.49559
C          C       0.99200   0.19989   0.74690   0.05902
C          C       0.66046   0.06493   0.70412   0.04590
C          C       0.80823   0.08349   0.65400   0.10033
C          C       0.12376   0.22430   0.69542   0.06732
C          C       0.24976   0.36126   0.68073   0.54556
C          C       0.32761   0.16739   0.92372   0.05091
C          C       0.55082   0.93244   0.92798   0.08026
C          C       0.34408   0.89821   0.96760   0.03407
C          C       0.09814   0.14422   0.95948   0.02971
C          C       0.10882   0.00324   0.98191   0.00821
C          C       0.36157   0.76166   0.99290  -0.08781
C          C       0.85968   0.24709   0.97315  -0.15211
C          C       0.95430   0.20599   0.29976   0.49672
C          C       0.00863   0.27355   0.24529   0.05985
C          C       0.33879   0.40823   0.20249   0.04550
C          C       0.18948   0.38939   0.15243   0.10042
C          C       0.87480   0.24908   0.19391   0.06605
C          C       0.74958   0.11164   0.17938   0.54619
C          C       0.67643   0.30629   0.42223   0.04857
C          C       0.45077   0.54073   0.42747   0.08045
C          C       0.65622   0.57449   0.46763   0.03370
C          C       0.90532   0.32923   0.45829   0.03080
C          C       0.89272   0.46968   0.48154   0.00627
C          C       0.63700   0.71049   0.49373  -0.08816
C          C       0.14490   0.22655   0.47156  -0.15362
C          C       0.94833   0.70766   0.19835   0.49655
C          C       0.00827   0.77301   0.25317   0.06125
C          C       0.34213   0.90659   0.29599   0.04646
C          C       0.19672   0.88658   0.34622   0.10055
C          C       0.87932   0.74690   0.30472   0.06635
C          C       0.75413   0.60944   0.31903   0.54735
C          C       0.66785   0.80816   0.07616   0.04966
C          C       0.44488   0.04314   0.07194   0.07993
C          C       0.65154   0.07738   0.03231   0.03463
C          C       0.89732   0.83133   0.04040   0.03017
C          C       0.88674   0.97233   0.01799   0.00812
C          C       0.63393   0.21390   0.00698  -0.08757
C          C       0.13568   0.72844   0.02669  -0.15151
C          C       0.05140   0.76474   0.70007   0.49676
C          C       0.99233   0.69923   0.75468   0.06092
C          C       0.65883   0.56596   0.79725   0.04595
C          C       0.80462   0.58627   0.84753   0.10064
C          C       0.12211   0.72549   0.80626   0.06652
C          C       0.24735   0.86313   0.82065   0.54478
C          C       0.33047   0.66361   0.57733   0.05047
C          C       0.55591   0.42915   0.57210   0.08014
C          C       0.35056   0.39542   0.53193   0.03435
C          C       0.10158   0.64070   0.54125   0.02868
C          C       0.11414   0.50026   0.51801   0.00678
C          C       0.36984   0.25942   0.50582  -0.08835
C          C       0.86199   0.74338   0.52798  -0.15204
N          N       0.77396   0.11686   0.74970  -0.22434
N          N       0.03085   0.15948   0.64968  -0.24302
N          N       0.53107   0.06024   0.90497  -0.22720
N          N       0.22685   0.35644   0.24809  -0.22468
N          N       0.96649   0.31353   0.14815  -0.24099
N          N       0.47209   0.41336   0.40381  -0.22336
N          N       0.22620   0.85612   0.25035  -0.22646
N          N       0.97432   0.81045   0.35058  -0.24250
N          N       0.46454   0.91534   0.09494  -0.22617
N          N       0.77437   0.61615   0.75167  -0.22599
N          N       0.02730   0.66228   0.85204  -0.24164
N          N       0.53478   0.55653   0.59575  -0.22475
O          O       0.86486   0.24148   0.84014  -0.54070
O          O       0.24706   0.34533   0.80697  -0.49203
O          O       0.48415   0.39980   0.70222  -0.53223
O          O       0.08015   0.43026   0.64650  -0.55611
O          O       0.13987   0.23104   0.33826  -0.54312
O          O       0.75579   0.12766   0.30492  -0.49185
O          O       0.51527   0.07324   0.20074  -0.53243
O          O       0.92039   0.04221   0.14539  -0.55552
O          O       0.13058   0.73387   0.15963  -0.54174
O          O       0.74908   0.62980   0.19295  -0.49232
O          O       0.51919   0.57125   0.29760  -0.53257
O          O       0.92449   0.53961   0.35290  -0.55720
O          O       0.86870   0.73858   0.66127  -0.54278
O          O       0.25027   0.84279   0.69496  -0.49206
O          O       0.48192   0.90128   0.79928  -0.53287
O          O       0.07691   0.93306   0.85455  -0.55404

