data_crystal

_audit_creation_method 'AiiDA-DDEC plugin'

_cell_length_a        11.53847
_cell_length_b        13.03459
_cell_length_c        12.92932

_cell_angle_alpha     66.93334
_cell_angle_beta     88.71787
_cell_angle_gamma     81.86525

_symmetry_space_group_name_Hall 'P 1'
_symmetry_space_group_name_H-M  'P 1'

loop_
_symmetry_equiv_pos_as_xyz
 'x,y,z'

loop_
_atom_site_label
_atom_site_type_symbol
_atom_site_fract_x
_atom_site_fract_y
_atom_site_fract_z
_atom_site_charge
Ni         Ni      0.21071   0.23258   0.16903   0.81150
Ni         Ni      0.49859   0.15184   0.83924   1.02999
Ni         Ni      0.82086   0.13498   0.15149   0.87175
Ni         Ni      0.79973   0.79436   0.08472   0.93582
Ni         Ni      0.79031   0.76838   0.82906   0.81028
Ni         Ni      0.50231   0.84959   0.15674   1.03255
Ni         Ni      0.17952   0.86622   0.84446   0.87081
Ni         Ni      0.20345   0.20638   0.91347   0.93585
H          H       0.30992   0.12053   0.77780   0.35884
H          H       0.32933   0.02555   0.91451   0.39899
H          H       0.22988   0.94164   0.27043   0.15159
H          H       0.37534   0.93609   0.31544   0.12963
H          H       0.12803   0.09286   0.43024   0.14613
H          H       0.13978   0.96505   0.41074   0.14390
H          H       0.64527   0.35567   0.90477   0.12764
H          H       0.79052   0.33490   0.86572   0.13503
H          H       0.91304   0.35997   0.09705   0.15317
H          H       0.88169   0.43117   0.94855   0.13389
H          H       0.55575   0.26276   0.08190   0.13858
H          H       0.48237   0.08372   0.25744   0.13171
H          H       0.24245   0.12091   0.50843   0.13144
H          H       0.59385   0.19456   0.50334   0.12704
H          H       0.78111   0.50098   0.08050   0.13493
H          H       0.43543   0.51707   0.20779   0.12766
H          H       0.79441   0.51683   0.48244   0.13364
H          H       0.13602   0.61508   0.37875   0.13033
H          H       0.71303   0.66475   0.30532   0.09687
H          H       0.03874   0.75972   0.20452   0.10086
H          H       0.69070   0.88133   0.21866   0.35815
H          H       0.67201   0.97528   0.08199   0.39884
H          H       0.77041   0.05885   0.72730   0.15135
H          H       0.62491   0.06434   0.68255   0.12873
H          H       0.87184   0.90786   0.56713   0.14612
H          H       0.85958   0.03603   0.58596   0.14393
H          H       0.35607   0.64583   0.09149   0.12793
H          H       0.21080   0.66608   0.13070   0.13398
H          H       0.08817   0.64127   0.89945   0.15191
H          H       0.11994   0.56990   0.04790   0.13374
H          H       0.44549   0.73876   0.91472   0.13872
H          H       0.51786   0.91658   0.74019   0.13134
H          H       0.75762   0.88046   0.48868   0.13211
H          H       0.40635   0.80659   0.49359   0.12640
H          H       0.22078   0.50009   0.91625   0.13522
H          H       0.56639   0.48474   0.78867   0.12817
H          H       0.20876   0.48789   0.51680   0.13384
H          H       0.86776   0.38664   0.61780   0.13017
H          H       0.29018   0.33866   0.69304   0.09632
H          H       0.96478   0.24185   0.79211   0.10106
C          C       0.39588   0.16455   0.62701   0.57314
C          C       0.41492   0.15885   0.51528  -0.03549
C          C       0.52467   0.16837   0.46786  -0.11331
C          C       0.54852   0.13936   0.37564  -0.00716
C          C       0.46028   0.10562   0.32900  -0.16090
C          C       0.34681   0.10353   0.37158   0.14297
C          C       0.32504   0.12864   0.46620  -0.16780
C          C       0.67066   0.14545   0.32948   0.55740
C          C       0.14081   0.05594   0.36716  -0.23297
C          C       0.03915   0.11595   0.28007   0.61698
C          C       0.29954   0.99243   0.26565  -0.25468
C          C       0.32618   0.04474   0.14127   0.64281
C          C       0.36948   0.34508   0.15685   0.54062
C          C       0.62556   0.63247   0.14182   0.58890
C          C       0.50318   0.47838   0.16941  -0.11025
C          C       0.60936   0.52065   0.14160  -0.02135
C          C       0.70041   0.46458   0.10065  -0.15459
C          C       0.68291   0.36949   0.08204   0.16012
C          C       0.57317   0.33380   0.09993  -0.14893
C          C       0.48398   0.38709   0.14418  -0.01763
C          C       0.88578   0.35014   0.02120  -0.25692
C          C       0.97708   0.26194   0.00495   0.59969
C          C       0.72960   0.30148   0.93297  -0.24649
C          C       0.70797   0.18650   0.94138   0.61896
C          C       0.97492   0.54796   0.44724   0.10331
C          C       0.80654   0.65077   0.32415   0.12052
C          C       0.85367   0.56707   0.42425  -0.16222
C          C       0.98821   0.70339   0.26844   0.09560
C          C       0.04193   0.62128   0.36699  -0.16855
C          C       0.60435   0.83734   0.36960   0.57062
C          C       0.58525   0.84248   0.48165  -0.03295
C          C       0.47553   0.83272   0.52911  -0.11400
C          C       0.45176   0.86143   0.62152  -0.00742
C          C       0.53997   0.89490   0.66849  -0.16025
C          C       0.65341   0.89716   0.62593   0.14529
C          C       0.67510   0.87248   0.53100  -0.17053
C          C       0.32977   0.85527   0.66784   0.55570
C          C       0.85907   0.94511   0.62995  -0.23235
C          C       0.96110   0.88575   0.71661   0.61488
C          C       0.70077   0.00798   0.73223  -0.25274
C          C       0.67437   0.95577   0.85675   0.64270
C          C       0.63206   0.65604   0.84035   0.54050
C          C       0.37704   0.36860   0.85547   0.58737
C          C       0.49852   0.52333   0.82700  -0.11050
C          C       0.39256   0.48078   0.85499  -0.02238
C          C       0.30132   0.53673   0.89588  -0.15377
C          C       0.31848   0.63199   0.91432   0.16057
C          C       0.42816   0.66779   0.89652  -0.14962
C          C       0.51746   0.61456   0.85235  -0.01751
C          C       0.11563   0.65098   0.97531  -0.25304
C          C       0.02448   0.73905   0.99196   0.59778
C          C       0.27161   0.69981   0.06340  -0.24377
C          C       0.29284   0.81484   0.05506   0.61710
C          C       0.02849   0.45530   0.55067   0.10424
C          C       0.19671   0.35255   0.67405   0.11964
C          C       0.14957   0.43683   0.57428  -0.16221
C          C       0.01524   0.29881   0.72872   0.09637
C          C       0.96166   0.38107   0.63018  -0.16954
N          N       0.25532   0.07920   0.31202  -0.05816
N          N       0.77181   0.30797   0.03892  -0.07285
N          N       0.87235   0.71692   0.24530  -0.23866
N          N       0.74490   0.92137   0.68561  -0.05881
N          N       0.22944   0.69339   0.95740  -0.07543
N          N       0.13095   0.28567   0.75231  -0.23863
O          O       0.48054   0.18714   0.67418  -0.55512
O          O       0.29814   0.14146   0.67196  -0.48618
O          O       0.74336   0.18256   0.37002  -0.54860
O          O       0.68608   0.11114   0.24723  -0.57934
O          O       0.41926   0.01371   0.10198  -0.53044
O          O       0.24276   0.12183   0.08237  -0.55759
O          O       0.95064   0.06913   0.28108  -0.50477
O          O       0.05070   0.21668   0.21222  -0.56216
O          O       0.36156   0.27177   0.11377  -0.52777
O          O       0.28264   0.37534   0.20544  -0.53868
O          O       0.53887   0.69071   0.16606  -0.57767
O          O       0.72682   0.65944   0.11494  -0.52839
O          O       0.95547   0.16158   0.03529  -0.55770
O          O       0.06994   0.29862   0.95936  -0.55028
O          O       0.72288   0.10393   0.03745  -0.52294
O          O       0.67131   0.18279   0.85142  -0.56063
O          O       0.33321   0.10702   0.86766  -0.82448
O          O       0.52004   0.81446   0.32219  -0.55595
O          O       0.70193   0.86120   0.32476  -0.48562
O          O       0.25727   0.81674   0.62867  -0.54837
O          O       0.31408   0.89115   0.74898  -0.57807
O          O       0.58125   0.98709   0.89585  -0.53087
O          O       0.75790   0.87888   0.91576  -0.55810
O          O       0.04976   0.93273   0.71453  -0.50367
O          O       0.94983   0.78525   0.78525  -0.56185
O          O       0.64052   0.72794   0.88516  -0.52883
O          O       0.71850   0.62663   0.79083  -0.53803
O          O       0.46308   0.31130   0.82923  -0.57639
O          O       0.27685   0.34029   0.88514  -0.52846
O          O       0.04537   0.83971   0.96063  -0.55623
O          O       0.93235   0.70201   0.03900  -0.54924
O          O       0.27757   0.89748   0.95910  -0.52119
O          O       0.32958   0.81845   0.14508  -0.56126
O          O       0.66824   0.89388   0.12918  -0.82294

