data_crystal

_audit_creation_method 'AiiDA-DDEC plugin'

_cell_length_a        18.42417
_cell_length_b        18.42417
_cell_length_c        18.42417

_cell_angle_alpha     90.00000
_cell_angle_beta     90.00000
_cell_angle_gamma     90.00000

_symmetry_space_group_name_Hall 'P 1'
_symmetry_space_group_name_H-M  'P 1'

loop_
_symmetry_equiv_pos_as_xyz
 'x,y,z'

loop_
_atom_site_label
_atom_site_type_symbol
_atom_site_fract_x
_atom_site_fract_y
_atom_site_fract_z
_atom_site_charge
Si         Si      0.57561   0.69627   0.00000   1.74362
Si         Si      0.00000   0.57561   0.69627   1.74359
Si         Si      0.69627   0.00000   0.57561   1.74363
Si         Si      0.57561   0.00000   0.69627   1.74363
Si         Si      0.69627   0.57561   0.00000   1.74363
Si         Si      0.00000   0.69627   0.57561   1.74364
Si         Si      0.57561   0.30373   0.00000   1.74370
Si         Si      0.00000   0.42439   0.30373   1.74370
Si         Si      0.69627   0.00000   0.42439   1.74359
Si         Si      0.57561   0.00000   0.30373   1.74371
Si         Si      0.69627   0.42439   0.00000   1.74360
Si         Si      0.00000   0.30373   0.42439   1.74370
Si         Si      0.42439   0.69627   0.00000   1.74360
Si         Si      0.00000   0.57561   0.30373   1.74370
Si         Si      0.30373   0.00000   0.42439   1.74370
Si         Si      0.42439   0.00000   0.30373   1.74370
Si         Si      0.30373   0.57561   0.00000   1.74366
Si         Si      0.00000   0.69627   0.42439   1.74359
Si         Si      0.42439   0.30373   0.00000   1.74370
Si         Si      0.00000   0.42439   0.69627   1.74360
Si         Si      0.30373   0.00000   0.57561   1.74371
Si         Si      0.42439   0.00000   0.69627   1.74359
Si         Si      0.30373   0.42439   0.00000   1.74370
Si         Si      0.00000   0.30373   0.57561   1.74370
Si         Si      0.07582   0.19659   0.50000   1.74541
Si         Si      0.50000   0.07582   0.19659   1.74542
Si         Si      0.19659   0.50000   0.07582   1.74542
Si         Si      0.07582   0.50000   0.19659   1.74542
Si         Si      0.19659   0.07582   0.50000   1.74542
Si         Si      0.50000   0.19659   0.07582   1.74541
Si         Si      0.07582   0.80341   0.50000   1.74539
Si         Si      0.50000   0.92418   0.80341   1.74548
Si         Si      0.19659   0.50000   0.92418   1.74545
Si         Si      0.07582   0.50000   0.80341   1.74539
Si         Si      0.19659   0.92418   0.50000   1.74546
Si         Si      0.50000   0.80341   0.92418   1.74541
Si         Si      0.92418   0.19659   0.50000   1.74545
Si         Si      0.50000   0.07582   0.80341   1.74539
Si         Si      0.80341   0.50000   0.92418   1.74543
Si         Si      0.92418   0.50000   0.80341   1.74543
Si         Si      0.80341   0.07582   0.50000   1.74539
Si         Si      0.50000   0.19659   0.92418   1.74545
Si         Si      0.92418   0.80341   0.50000   1.74541
Si         Si      0.50000   0.92418   0.19659   1.74546
Si         Si      0.80341   0.50000   0.07582   1.74540
Si         Si      0.92418   0.50000   0.19659   1.74545
Si         Si      0.80341   0.92418   0.50000   1.74548
Si         Si      0.50000   0.80341   0.07582   1.74538
O          O       0.57203   0.74969   0.07228  -0.89082
O          O       0.07228   0.57203   0.74969  -0.89081
O          O       0.74969   0.07228   0.57203  -0.89082
O          O       0.57203   0.07228   0.74969  -0.89082
O          O       0.74969   0.57203   0.07228  -0.89082
O          O       0.07228   0.74969   0.57203  -0.89082
O          O       0.57203   0.25031   0.92772  -0.89088
O          O       0.07228   0.42797   0.25031  -0.89089
O          O       0.74969   0.92772   0.42797  -0.89092
O          O       0.57203   0.92772   0.25031  -0.89088
O          O       0.74969   0.42797   0.92772  -0.89091
O          O       0.07228   0.25031   0.42797  -0.89089
O          O       0.42797   0.74969   0.92772  -0.89090
O          O       0.92772   0.57203   0.25031  -0.89088
O          O       0.25031   0.07228   0.42797  -0.89089
O          O       0.42797   0.07228   0.25031  -0.89089
O          O       0.25031   0.57203   0.92772  -0.89087
O          O       0.92772   0.74969   0.42797  -0.89090
O          O       0.42797   0.25031   0.07228  -0.89089
O          O       0.92772   0.42797   0.74969  -0.89091
O          O       0.25031   0.92772   0.57203  -0.89088
O          O       0.42797   0.92772   0.74969  -0.89091
O          O       0.25031   0.42797   0.07228  -0.89089
O          O       0.92772   0.25031   0.57203  -0.89088
O          O       0.42797   0.25031   0.92772  -0.89094
O          O       0.92772   0.42797   0.25031  -0.89094
O          O       0.25031   0.92772   0.42797  -0.89094
O          O       0.42797   0.92772   0.25031  -0.89094
O          O       0.25031   0.42797   0.92772  -0.89094
O          O       0.92772   0.25031   0.42797  -0.89094
O          O       0.42797   0.74969   0.07228  -0.89086
O          O       0.92772   0.57203   0.74969  -0.89084
O          O       0.25031   0.07228   0.57203  -0.89082
O          O       0.42797   0.07228   0.74969  -0.89086
O          O       0.25031   0.57203   0.07228  -0.89081
O          O       0.92772   0.74969   0.57203  -0.89085
O          O       0.57203   0.25031   0.07228  -0.89082
O          O       0.07228   0.42797   0.74969  -0.89087
O          O       0.74969   0.92772   0.57203  -0.89086
O          O       0.57203   0.92772   0.74969  -0.89086
O          O       0.74969   0.42797   0.07228  -0.89087
O          O       0.07228   0.25031   0.57203  -0.89082
O          O       0.57203   0.74969   0.92772  -0.89084
O          O       0.07228   0.57203   0.25031  -0.89082
O          O       0.74969   0.07228   0.42797  -0.89086
O          O       0.57203   0.07228   0.25031  -0.89082
O          O       0.74969   0.57203   0.92772  -0.89085
O          O       0.07228   0.74969   0.42797  -0.89086
O          O       0.64807   0.64807   0.00000  -0.80921
O          O       0.00000   0.64807   0.64807  -0.80920
O          O       0.64807   0.00000   0.64807  -0.80921
O          O       0.64807   0.35193   0.00000  -0.80924
O          O       0.00000   0.35193   0.35193  -0.80931
O          O       0.64807   0.00000   0.35193  -0.80924
O          O       0.35193   0.64807   0.00000  -0.80922
O          O       0.00000   0.64807   0.35193  -0.80924
O          O       0.35193   0.00000   0.35193  -0.80932
O          O       0.35193   0.35193   0.00000  -0.80931
O          O       0.00000   0.35193   0.64807  -0.80924
O          O       0.35193   0.00000   0.64807  -0.80924
O          O       0.14844   0.14844   0.50000  -0.80909
O          O       0.50000   0.14844   0.14844  -0.80909
O          O       0.14844   0.50000   0.14844  -0.80909
O          O       0.14844   0.85157   0.50000  -0.80911
O          O       0.50000   0.85157   0.85157  -0.80914
O          O       0.14844   0.50000   0.85157  -0.80911
O          O       0.85157   0.14844   0.50000  -0.80911
O          O       0.50000   0.14844   0.85157  -0.80911
O          O       0.85157   0.50000   0.85157  -0.80913
O          O       0.85157   0.85157   0.50000  -0.80914
O          O       0.50000   0.85157   0.14844  -0.80911
O          O       0.85157   0.50000   0.14844  -0.80911
O          O       0.50000   0.64733   0.00000  -0.89702
O          O       0.00000   0.50000   0.64733  -0.89701
O          O       0.64733   0.00000   0.50000  -0.89702
O          O       0.50000   0.00000   0.64733  -0.89702
O          O       0.64733   0.50000   0.00000  -0.89702
O          O       0.00000   0.64733   0.50000  -0.89702
O          O       0.50000   0.35267   0.00000  -0.89700
O          O       0.00000   0.50000   0.35267  -0.89701
O          O       0.50000   0.00000   0.35267  -0.89701
O          O       0.00000   0.35267   0.50000  -0.89700
O          O       0.35267   0.00000   0.50000  -0.89701
O          O       0.35267   0.50000   0.00000  -0.89700
O          O       0.00000   0.14783   0.50000  -0.89936
O          O       0.50000   0.00000   0.14783  -0.89936
O          O       0.14783   0.50000   0.00000  -0.89936
O          O       0.00000   0.50000   0.14783  -0.89936
O          O       0.14783   0.00000   0.50000  -0.89936
O          O       0.50000   0.14783   0.00000  -0.89936
O          O       0.00000   0.85217   0.50000  -0.89924
O          O       0.50000   0.00000   0.85217  -0.89925
O          O       0.00000   0.50000   0.85217  -0.89924
O          O       0.50000   0.85217   0.00000  -0.89924
O          O       0.85217   0.50000   0.00000  -0.89924
O          O       0.85217   0.00000   0.50000  -0.89925

