data_crystal

_audit_creation_method 'AiiDA-DDEC plugin'

_cell_length_a        14.02883
_cell_length_b        14.02883
_cell_length_c        10.42275

_cell_angle_alpha     90.00000
_cell_angle_beta     90.00000
_cell_angle_gamma     90.00000

_symmetry_space_group_name_Hall 'P 1'
_symmetry_space_group_name_H-M  'P 1'

loop_
_symmetry_equiv_pos_as_xyz
 'x,y,z'

loop_
_atom_site_label
_atom_site_type_symbol
_atom_site_fract_x
_atom_site_fract_y
_atom_site_fract_z
_atom_site_charge
Si         Si      0.26883   0.88611   0.00000   1.88027
Si         Si      0.76769   0.38549   0.50000   1.87111
Si         Si      0.11389   0.26883   0.00000   1.88018
Si         Si      0.61452   0.76769   0.50000   1.87114
Si         Si      0.73117   0.11389   0.00000   1.88018
Si         Si      0.23232   0.61452   0.50000   1.87105
Si         Si      0.88611   0.73117   0.00000   1.88037
Si         Si      0.38549   0.23232   0.50000   1.87104
Si         Si      0.73117   0.88611   0.00000   1.88037
Si         Si      0.23232   0.38549   0.50000   1.87104
Si         Si      0.88611   0.26883   0.00000   1.88027
Si         Si      0.38549   0.76769   0.50000   1.87111
Si         Si      0.26883   0.11389   0.00000   1.88018
Si         Si      0.76769   0.61452   0.50000   1.87112
Si         Si      0.11389   0.73117   0.00000   1.88018
Si         Si      0.61452   0.23232   0.50000   1.87105
Si         Si      0.61275   0.88821   0.74818   1.87495
Si         Si      0.11179   0.38726   0.25182   1.87496
Si         Si      0.11179   0.61275   0.74818   1.87496
Si         Si      0.61275   0.11179   0.25182   1.87494
Si         Si      0.38726   0.11179   0.74818   1.87496
Si         Si      0.88821   0.61275   0.25182   1.87495
Si         Si      0.88821   0.38726   0.74818   1.87507
Si         Si      0.38726   0.88821   0.25182   1.87507
Si         Si      0.38726   0.88821   0.74818   1.87506
Si         Si      0.88821   0.38726   0.25182   1.87507
Si         Si      0.88821   0.61275   0.74818   1.87495
Si         Si      0.38726   0.11179   0.25182   1.87496
Si         Si      0.61275   0.11179   0.74818   1.87496
Si         Si      0.11179   0.61275   0.25182   1.87494
Si         Si      0.11179   0.38726   0.74818   1.87496
Si         Si      0.61275   0.88821   0.25182   1.87495
O          O       0.25015   0.00000   0.00000  -0.96954
O          O       0.75428   0.50000   0.50000  -0.97191
O          O       0.00000   0.25015   0.00000  -0.96954
O          O       0.50000   0.75428   0.50000  -0.97193
O          O       0.74985   0.00000   0.00000  -0.96954
O          O       0.24572   0.50000   0.50000  -0.97191
O          O       0.00000   0.74985   0.00000  -0.96954
O          O       0.50000   0.24572   0.50000  -0.97191
O          O       0.16540   0.16540   0.00000  -0.90492
O          O       0.66233   0.66233   0.50000  -0.89853
O          O       0.83460   0.16540   0.00000  -0.90482
O          O       0.33768   0.66233   0.50000  -0.89842
O          O       0.83460   0.83460   0.00000  -0.90482
O          O       0.33768   0.33768   0.50000  -0.89831
O          O       0.16540   0.83460   0.00000  -0.90482
O          O       0.66233   0.33768   0.50000  -0.89841
O          O       0.50000   0.87079   0.77678  -0.96899
O          O       0.00000   0.36681   0.28401  -0.96428
O          O       0.12921   0.50000   0.77678  -0.96895
O          O       0.63320   0.00000   0.28401  -0.96423
O          O       0.50000   0.12921   0.77678  -0.96895
O          O       0.00000   0.63320   0.28401  -0.96423
O          O       0.87079   0.50000   0.77678  -0.96899
O          O       0.36681   0.00000   0.28401  -0.96428
O          O       0.50000   0.12921   0.22322  -0.96894
O          O       0.00000   0.63320   0.71599  -0.96424
O          O       0.87079   0.50000   0.22322  -0.96899
O          O       0.36681   0.00000   0.71599  -0.96428
O          O       0.50000   0.87079   0.22322  -0.96899
O          O       0.00000   0.36681   0.71599  -0.96428
O          O       0.12921   0.50000   0.22322  -0.96894
O          O       0.63320   0.00000   0.71599  -0.96424
O          O       0.32838   0.85380   0.87357  -0.92650
O          O       0.82539   0.35087   0.37294  -0.92145
O          O       0.14621   0.32838   0.87357  -0.92641
O          O       0.64914   0.82539   0.37294  -0.92138
O          O       0.67162   0.14621   0.87357  -0.92639
O          O       0.17461   0.64914   0.37294  -0.92136
O          O       0.85380   0.67162   0.87357  -0.92650
O          O       0.35087   0.17461   0.37294  -0.92143
O          O       0.67162   0.85380   0.87357  -0.92650
O          O       0.17461   0.35087   0.37294  -0.92143
O          O       0.85380   0.32838   0.87357  -0.92650
O          O       0.35087   0.82539   0.37294  -0.92145
O          O       0.32838   0.14621   0.87357  -0.92641
O          O       0.82539   0.64914   0.37294  -0.92137
O          O       0.14621   0.67162   0.87357  -0.92639
O          O       0.64914   0.17461   0.37294  -0.92136
O          O       0.67162   0.14621   0.12643  -0.92639
O          O       0.17461   0.64914   0.62706  -0.92136
O          O       0.85380   0.67162   0.12643  -0.92650
O          O       0.35087   0.17461   0.62706  -0.92143
O          O       0.32838   0.85380   0.12643  -0.92650
O          O       0.82539   0.35087   0.62706  -0.92146
O          O       0.14621   0.32838   0.12643  -0.92641
O          O       0.64914   0.82539   0.62706  -0.92138
O          O       0.32838   0.14621   0.12643  -0.92641
O          O       0.82539   0.64914   0.62706  -0.92137
O          O       0.14621   0.67162   0.12643  -0.92639
O          O       0.64914   0.17461   0.62706  -0.92136
O          O       0.67162   0.85380   0.12643  -0.92650
O          O       0.17461   0.35087   0.62706  -0.92143
O          O       0.85380   0.32838   0.12643  -0.92650
O          O       0.35087   0.82539   0.62706  -0.92146

