data_crystal

_audit_creation_method 'AiiDA-DDEC plugin'

_cell_length_a        18.60841
_cell_length_b        18.60841
_cell_length_c         8.61117

_cell_angle_alpha     90.00000
_cell_angle_beta     90.00000
_cell_angle_gamma     119.99218

_symmetry_space_group_name_Hall 'P 1'
_symmetry_space_group_name_H-M  'P 1'

loop_
_symmetry_equiv_pos_as_xyz
 'x,y,z'

loop_
_atom_site_label
_atom_site_type_symbol
_atom_site_fract_x
_atom_site_fract_y
_atom_site_fract_z
_atom_site_charge
Si         Si      0.17067   0.66739   0.93741   1.90791
Si         Si      0.33268   0.50340   0.93742   1.90905
Si         Si      0.49653   0.82928   0.93741   1.90921
Si         Si      0.82933   0.33262   0.43741   1.90800
Si         Si      0.66732   0.49661   0.43742   1.90905
Si         Si      0.50347   0.17073   0.43741   1.90912
Si         Si      0.33262   0.82933   0.43741   1.90801
Si         Si      0.49661   0.66733   0.43742   1.90905
Si         Si      0.17073   0.50347   0.43741   1.90928
Si         Si      0.66738   0.17067   0.93741   1.90802
Si         Si      0.50339   0.33268   0.93742   1.90914
Si         Si      0.82927   0.49653   0.93741   1.90919
Si         Si      0.82933   0.33262   0.06259   1.90814
Si         Si      0.66732   0.49661   0.06258   1.90900
Si         Si      0.50347   0.17073   0.06259   1.90925
Si         Si      0.17067   0.66739   0.56259   1.90787
Si         Si      0.33268   0.50340   0.56258   1.90907
Si         Si      0.49653   0.82928   0.56259   1.90917
Si         Si      0.66738   0.17067   0.56259   1.90802
Si         Si      0.50339   0.33268   0.56258   1.90902
Si         Si      0.82927   0.49653   0.56259   1.90920
Si         Si      0.33262   0.82933   0.06259   1.90810
Si         Si      0.49661   0.66733   0.06258   1.90902
Si         Si      0.17073   0.50347   0.06259   1.90928
Si         Si      0.58181  -0.00003   0.06266   1.88271
Si         Si     -0.00003   0.58181   0.06266   1.88251
Si         Si      0.41818   0.41818   0.06264   1.88268
Si         Si      0.41819   0.00003   0.56266   1.88250
Si         Si      0.00003   0.41819   0.56266   1.88261
Si         Si      0.58182   0.58182   0.56265   1.88241
Si         Si      0.41819   0.00003   0.93734   1.88270
Si         Si      0.00003   0.41819   0.93734   1.88276
Si         Si      0.58182   0.58182   0.93736   1.88253
Si         Si      0.58181  -0.00003   0.43734   1.88268
Si         Si     -0.00003   0.58181   0.43734   1.88246
Si         Si      0.41818   0.41818   0.43736   1.88272
O          O       0.18199   0.59107  -0.00002  -0.98705
O          O       0.40905   0.59095   0.00000  -0.98742
O          O       0.40893   0.81801   0.00002  -0.98711
O          O       0.81801   0.40893   0.49999  -0.98706
O          O       0.59095   0.40905   0.50000  -0.98747
O          O       0.59107   0.18200   0.50002  -0.98705
O          O       0.40893   0.81801   0.49999  -0.98708
O          O       0.40905   0.59095   0.50000  -0.98745
O          O       0.18199   0.59107   0.50002  -0.98708
O          O       0.59107   0.18200  -0.00002  -0.98705
O          O       0.59095   0.40905   0.00000  -0.98748
O          O       0.81801   0.40893   0.00002  -0.98708
O          O       0.24578   0.75422   0.00000  -0.93563
O          O       0.24593   0.49185   0.00012  -0.93611
O          O       0.50816   0.75408  -0.00013  -0.93607
O          O       0.75422   0.24578   0.50000  -0.93563
O          O       0.75407   0.50815   0.50013  -0.93608
O          O       0.49185   0.24593   0.49988  -0.93607
O          O       0.24578   0.75422   0.50000  -0.93560
O          O       0.50816   0.75408   0.50013  -0.93611
O          O       0.24593   0.49185   0.49988  -0.93612
O          O       0.75422   0.24578  -0.00000  -0.93566
O          O       0.49185   0.24593   0.00013  -0.93614
O          O       0.75407   0.50815  -0.00012  -0.93606
O          O       0.08450   0.66173  -0.00133  -0.90672
O          O       0.33827   0.42285  -0.00132  -0.90728
O          O       0.57708   0.91536  -0.00121  -0.90729
O          O       0.91550   0.33827   0.49867  -0.90683
O          O       0.66173   0.57716   0.49868  -0.90711
O          O       0.42292   0.08464   0.49879  -0.90732
O          O       0.33827   0.91550   0.49867  -0.90671
O          O       0.57716   0.66173   0.49868  -0.90708
O          O       0.08464   0.42292   0.49879  -0.90743
O          O       0.66173   0.08450  -0.00133  -0.90682
O          O       0.42285   0.33827  -0.00132  -0.90730
O          O       0.91536   0.57708  -0.00121  -0.90717
O          O       0.91550   0.33828   0.00134  -0.90687
O          O       0.66173   0.57715   0.00132  -0.90711
O          O       0.42292   0.08464   0.00121  -0.90737
O          O       0.08450   0.66173   0.50134  -0.90668
O          O       0.33827   0.42285   0.50133  -0.90732
O          O       0.57708   0.91536   0.50121  -0.90729
O          O       0.66173   0.08450   0.50134  -0.90681
O          O       0.42285   0.33827   0.50133  -0.90727
O          O       0.91536   0.57708   0.50121  -0.90717
O          O       0.33827   0.91550   0.00133  -0.90676
O          O       0.57715   0.66173   0.00133  -0.90712
O          O       0.08464   0.42292   0.00121  -0.90744
O          O       0.17084   0.66524   0.75000  -0.96585
O          O       0.33475   0.50569   0.75000  -0.96608
O          O       0.49423   0.82922   0.75000  -0.96638
O          O       0.82916   0.33476   0.25000  -0.96595
O          O       0.66525   0.49431   0.25000  -0.96609
O          O       0.50577   0.17078   0.25000  -0.96638
O          O       0.33476   0.82916   0.25000  -0.96596
O          O       0.49431   0.66525   0.25000  -0.96607
O          O       0.17078   0.50577   0.25000  -0.96639
O          O       0.66524   0.17084   0.75000  -0.96592
O          O       0.50569   0.33475   0.75000  -0.96608
O          O       0.82922   0.49424   0.75000  -0.96637
O          O       0.50000   0.00000  -0.00000  -1.03834
O          O      -0.00000   0.50000  -0.00000  -1.03832
O          O       0.50000   0.50000  -0.00000  -1.03837
O          O       0.50000  -0.00000   0.50000  -1.03829
O          O      -0.00000   0.50000   0.50000  -1.03827
O          O       0.50000   0.50000   0.50000  -1.03840
O          O       0.58285   0.00003   0.25000  -0.95504
O          O       0.00003   0.58285   0.25000  -0.95498
O          O       0.41716   0.41716   0.25000  -0.95502
O          O       0.41715  -0.00003   0.75000  -0.95501
O          O      -0.00003   0.41715   0.75000  -0.95503
O          O       0.58285   0.58285   0.75000  -0.95492

